REMARK  2 active torsions:
REMARK  status: ('A' for Active; 'I' for Inactive)
REMARK    1  A    between atoms: C11_6  and  C14_8 
REMARK    2  A    between atoms: C27_16  and  C28_17 
ROOT
HETATM    1  C1  WEG A1001     -16.257 -12.810  32.390  1.00129.88     0.001 A 
HETATM    2  C3  WEG A1001     -17.260 -12.206  31.628  1.00130.57     0.000 A 
HETATM    3  C5  WEG A1001     -17.225 -12.285  30.240  1.00130.63     0.000 A 
HETATM    4  C7  WEG A1001     -16.188 -12.967  29.612  1.00130.11     0.000 A 
HETATM    5  C9  WEG A1001     -15.184 -13.572  30.373  1.00129.25     0.001 A 
HETATM    6  C11 WEG A1001     -15.202 -13.502  31.774  1.00129.05     0.016 A 
ENDROOT
BRANCH   6   7
HETATM    7  C14 WEG A1001     -14.156 -14.136  32.588  1.00128.48     0.058 A 
HETATM    8  N12 WEG A1001     -12.901 -14.454  32.106  1.00127.96    -0.339 N 
HETATM    9  C32 WEG A1001     -12.143 -15.035  33.084  1.00127.63     0.141 A 
HETATM   10  H02 WEG A1001     -12.587 -14.281  31.162  1.00127.96     0.167 HD
HETATM   11  C17 WEG A1001     -12.910 -15.103  34.233  1.00128.24     0.035 A 
HETATM   12  N31 WEG A1001     -10.878 -15.455  32.930  1.00127.19    -0.227 NA
HETATM   13  C15 WEG A1001     -14.170 -14.538  33.915  1.00128.75     0.020 A 
HETATM   14  C18 WEG A1001     -12.321 -15.671  35.374  1.00128.60     0.005 A 
HETATM   15  C28 WEG A1001     -11.002 -16.133  35.289  1.00127.97     0.022 A 
HETATM   16  C29 WEG A1001     -10.357 -15.994  34.059  1.00127.20     0.101 A 
BRANCH  15  17
HETATM   17  C27 WEG A1001     -10.362 -16.727  36.451  1.00128.62     0.041 A 
HETATM   18  C20 WEG A1001     -10.906 -17.321  37.616  1.00130.11     0.092 A 
HETATM   19  N22 WEG A1001      -9.975 -17.753  38.467  1.00130.75    -0.274 N 
HETATM   20  N23 WEG A1001      -8.830 -17.440  37.848  1.00129.46    -0.171 NA
HETATM   21  H01 WEG A1001     -10.103 -18.206  39.360  1.00130.75     0.189 HD
HETATM   22  C25 WEG A1001      -9.001 -16.825  36.642  1.00128.29     0.122 A 
ENDBRANCH  15  17
ENDBRANCH   6   7
TORSDOF 2
