
     RDKit          3D

 42 44  0  0  1  0  0  0  0  0999 V2000
  -13.0130  -14.1120   33.9660 N   0  0  0  0  0  0  0  0  0  0  0  0
  -14.5070  -14.0520   33.8570 C   0  0  0  0  0  3  0  0  0  0  0  0
  -15.3620  -14.6960   34.9080 N   0  0  0  0  0  0  0  0  0  0  0  0
  -16.8570  -14.6370   34.7990 C   0  0  0  0  0  0  0  0  0  0  0  0
  -17.4970  -13.9340   33.6390 N   0  0  0  0  0  2  0  0  0  0  0  0
  -16.6420  -13.2900   32.5880 C   0  0  0  0  0  0  0  0  0  0  0  0
  -15.1470  -13.3490   32.6970 C   0  0  0  0  0  0  0  0  0  0  0  0
  -14.5680  -12.6280   31.5160 C   0  0  0  0  0  0  0  0  0  0  0  0
  -15.7040  -12.1230   30.6780 N   0  0  0  0  0  0  0  0  0  0  0  0
  -16.9860  -12.5320   31.3410 N   0  0  0  0  0  0  0  0  0  0  0  0
  -12.4510  -13.6890   33.2760 H   0  0  0  0  0  0  0  0  0  0  0  0
  -17.4450  -15.0800   35.5230 H   0  0  0  0  0  0  0  0  0  0  0  0
  -13.5630  -12.5010   31.3170 H   0  0  0  0  0  0  0  0  0  0  0  0
  -11.0790  -15.5500   34.9370 C   0  0  0  0  0  0  0  0  0  0  0  0
  -12.3720  -14.8150   35.1260 N   0  0  0  0  0  0  0  0  0  0  0  0
  -10.6290  -15.5720   34.0080 H   0  0  0  0  0  0  0  0  0  0  0  0
  -10.3060  -16.7220   38.6490 C   0  0  0  0  0  0  0  0  0  0  0  0
  -10.9460  -16.0190   37.4890 C   0  0  0  0  0  0  0  0  0  0  0  0
  -10.4390  -16.2530   36.0970 C   0  0  0  0  0  0  0  0  0  0  0  0
   -9.2910  -17.1900   35.8650 C   0  0  0  0  0  0  0  0  0  0  0  0
   -8.6510  -17.8940   37.0250 C   0  0  0  0  0  0  0  0  0  0  0  0
   -9.1580  -17.6590   38.4170 C   0  0  0  0  0  0  0  0  0  0  0  0
  -11.7360  -15.3740   37.6480 H   0  0  0  0  0  0  0  0  0  0  0  0
   -8.9410  -17.3520   34.9070 H   0  0  0  0  0  0  0  0  0  0  0  0
   -7.8610  -18.5380   36.8650 H   0  0  0  0  0  0  0  0  0  0  0  0
   -8.5180  -18.3630   39.5770 O   0  0  0  0  0  0  0  0  0  0  0  0
   -8.8360  -18.2160   40.4470 H   0  0  0  0  0  0  0  0  0  0  0  0
  -10.8140  -16.4880   40.0410 O   0  0  0  0  0  0  0  0  0  0  0  0
  -12.2600  -16.1570   40.2660 C   0  0  0  0  0  0  0  0  0  0  0  0
  -12.9280  -16.0870   39.4330 H   0  0  0  0  0  0  0  0  0  0  0  0
  -12.6220  -15.9890   41.2590 H   0  0  0  0  0  0  0  0  0  0  0  0
  -13.2910  -15.9200   40.4260 H   0  0  0  0  0  0  0  0  0  0  0  0
  -18.3700  -12.2350   30.8420 C   0  0  0  0  0  0  0  0  0  0  0  0
  -19.3570  -12.0230   30.4870 H   0  0  0  0  0  0  0  0  0  0  0  0
  -19.0920  -13.2390   29.9940 C   0  0  0  0  0  0  0  0  0  0  0  0
  -20.0800  -13.0280   29.6380 H   0  0  0  0  0  0  0  0  0  0  0  0
  -18.6220  -14.1660   29.7440 H   0  0  0  0  0  0  0  0  0  0  0  0
  -19.6090  -13.9550   29.3890 H   0  0  0  0  0  0  0  0  0  0  0  0
  -19.0300  -10.9350   31.1930 C   0  0  0  0  0  0  0  0  0  0  0  0
  -18.5140  -10.2180   31.7980 H   0  0  0  0  0  0  0  0  0  0  0  0
  -20.0170  -10.7230   30.8370 H   0  0  0  0  0  0  0  0  0  0  0  0
  -19.5020  -10.0070   31.4420 H   0  0  0  0  0  0  0  0  0  0  0  0
  1 15  1  0
  2  1  1  0
  2  3  1  0
  4  3  2  0
  4 12  1  0
  5  4  1  0
  6  7  2  0
  6  5  1  0
  7  2  1  0
  8  7  1  0
  9 10  1  0
  9  8  2  0
 10  6  1  0
 11  1  1  0
 13  8  1  0
 14 15  2  0
 14 19  1  0
 16 14  1  0
 17 28  1  0
 18 23  1  0
 18 17  2  0
 19 18  1  0
 20 19  2  0
 20 21  1  0
 21 22  2  0
 22 17  1  0
 22 26  1  0
 24 20  1  0
 25 21  1  0
 26 27  1  0
 28 29  1  0
 29 32  1  0
 29 31  1  0
 30 29  1  0
 33 39  1  0
 33 10  1  0
 34 33  1  0
 35 33  1  0
 36 35  1  0
 37 35  1  0
 38 35  1  0
 39 42  1  0
 39 40  1  0
 41 39  1  0
M  END
>  <minimizedAffinity>  (1) 
-8.07989788

$$$$

     RDKit          3D

 44 43  0  0  0  0  0  0  0  0999 V2000
  -13.5490  -14.9800   35.0490 C   0  0  0  0  0  0  0  0  0  0  0  0
  -12.3000  -14.5240   34.3560 C   0  0  0  0  0  0  0  0  0  0  0  0
  -10.9580  -14.9660   34.8600 C   0  0  0  0  0  0  0  0  0  0  0  0
  -10.8660  -15.8650   36.0570 C   0  0  0  0  0  0  0  0  0  0  0  0
  -12.1160  -16.3220   36.7500 C   0  0  0  0  0  0  0  0  0  0  0  0
  -13.4570  -15.8790   36.2460 C   0  0  0  0  0  0  0  0  0  0  0  0
  -12.3630  -13.9050   33.5320 H   0  0  0  0  0  0  0  0  0  0  0  0
  -10.0980  -14.6520   34.3830 H   0  0  0  0  0  0  0  0  0  0  0  0
  -12.0530  -16.9410   37.5740 H   0  0  0  0  0  0  0  0  0  0  0  0
  -14.3170  -16.1940   36.7220 H   0  0  0  0  0  0  0  0  0  0  0  0
  -16.3220  -13.0840   32.9360 C   0  0  0  0  0  0  0  0  0  0  0  0
  -17.5740  -13.6520   33.5360 C   0  0  0  0  0  0  0  0  0  0  0  0
  -17.4840  -14.6630   34.6410 C   0  0  0  0  0  0  0  0  0  0  0  0
  -16.1430  -15.1060   35.1450 C   0  0  0  0  0  0  0  0  0  0  0  0
  -14.8910  -14.5370   34.5440 C   0  0  0  0  0  0  0  0  0  0  0  0
  -14.9810  -13.5270   33.4400 C   0  0  0  0  0  0  0  0  0  0  0  0
  -18.4970  -13.3480   33.1890 H   0  0  0  0  0  0  0  0  0  0  0  0
  -18.3450  -15.0540   35.0540 H   0  0  0  0  0  0  0  0  0  0  0  0
  -16.0810  -15.8010   35.9050 H   0  0  0  0  0  0  0  0  0  0  0  0
  -14.1200  -13.1360   33.0270 H   0  0  0  0  0  0  0  0  0  0  0  0
  -17.2970  -10.5060   30.2030 C   0  0  0  0  0  0  0  0  0  0  0  0
  -15.8040  -10.5300   30.0590 N   0  0  0  0  0  0  0  0  0  0  0  0
  -15.2570  -11.4980   31.0650 N   0  0  0  0  0  0  0  0  0  0  0  0
  -16.4120  -12.0730   31.8310 C   0  0  0  0  0  0  0  0  0  0  0  0
  -17.6730  -11.4600   31.2980 O   0  0  0  0  0  0  0  0  0  0  0  0
  -18.2470   -9.6730   29.3940 C   0  0  0  0  0  0  0  0  0  0  0  0
  -19.3000   -9.7320   29.5780 H   0  0  0  0  0  0  0  0  0  0  0  0
  -17.8730   -9.0220   28.6320 H   0  0  0  0  0  0  0  0  0  0  0  0
  -18.9250   -9.0800   28.8170 H   0  0  0  0  0  0  0  0  0  0  0  0
   -9.5250  -16.3080   36.5610 C   0  0  0  0  0  0  0  0  0  0  0  0
   -8.5780  -17.0240   35.6440 O   0  0  0  0  0  0  0  0  0  0  0  0
   -9.1300  -16.0340   37.9820 N   0  0  0  0  0  4  0  0  0  0  0  0
   -9.7510  -15.5640   38.5840 H   0  0  0  0  0  0  0  0  0  0  0  0
   -7.7880  -16.4770   38.4860 C   0  0  0  0  0  0  0  0  0  0  0  0
   -7.0440  -15.7500   38.7350 H   0  0  0  0  0  0  0  0  0  0  0  0
   -6.8310  -16.7930   38.8460 H   0  0  0  0  0  0  0  0  0  0  0  0
   -7.4900  -17.9390   38.6420 C   0  0  0  0  0 15  0  0  0  0  0  0
   -7.9340  -19.3700   38.5690 C   0  0  0  0  0  3  0  0  0  0  0  0
   -6.5300  -19.0400   38.9830 C   0  0  0  0  0  2  0  0  0  0  0  0
   -7.2780  -18.9820   38.7520 H   0  0  0  0  0  0  0  0  0  0  0  0
   -8.6950  -20.0950   38.3690 H   0  0  0  0  0  0  0  0  0  0  0  0
   -7.4690  -20.3170   38.7530 H   0  0  0  0  0  0  0  0  0  0  0  0
   -5.5570  -19.3580   39.2940 H   0  0  0  0  0  0  0  0  0  0  0  0
   -5.9730  -18.1360   39.1130 H   0  0  0  0  0  0  0  0  0  0  0  0
  1  6  1  0
  2  3  1  0
  2  1  2  0
  3  4  2  0
  4 30  1  0
  4  5  1  0
  5  9  1  0
  6 10  1  0
  6  5  2  0
  7  2  1  0
  8  3  1  0
 11 16  2  0
 11 12  1  0
 12 13  2  0
 13 18  1  0
 13 14  1  0
 14 19  1  0
 15  1  1  0
 15 14  2  0
 16 15  1  0
 17 12  1  0
 20 16  1  0
 21 25  1  0
 22 21  2  0
 22 23  1  0
 23 24  2  0
 24 11  1  0
 25 24  1  0
 26 27  1  0
 26 21  1  0
 28 26  1  0
 29 26  1  0
 30 32  1  0
 31 30  2  0
 32 34  2  0
 32 33  1  0
 34 35  1  0
 34 36  1  0
 38 40  1  0
 38 42  1  0
 39 44  1  0
 39 43  1  0
 41 38  1  0
M  END
>  <minimizedAffinity>  (2) 
-9.84884071

$$$$

     RDKit          3D

 45 46  0  0  0  0  0  0  0  0999 V2000
  -12.9760  -15.4050   35.7450 C   0  0  0  0  0  0  0  0  0  0  0  0
  -14.3940  -15.6910   36.1400 N   0  0  0  0  0  0  0  0  0  0  0  0
  -15.2960  -14.9520   35.1960 C   0  0  0  0  0  0  0  0  0  0  0  0
  -14.4340  -14.2090   34.2180 C   0  0  0  0  0  0  0  0  0  0  0  0
  -13.0010  -14.4890   34.5570 N   0  0  0  0  0  0  0  0  0  0  0  0
  -12.2140  -14.1330   34.0830 H   0  0  0  0  0  0  0  0  0  0  0  0
  -14.9220  -13.3380   33.0970 C   0  0  0  0  0  0  0  0  0  0  0  0
  -14.5730  -13.6770   31.6790 C   0  0  0  0  0  0  0  0  0  0  0  0
  -15.0610  -12.8080   30.5590 C   0  0  0  0  0  0  0  0  0  0  0  0
  -15.8970  -11.5980   30.8570 C   0  0  0  0  0  3  0  0  0  0  0  0
  -16.2450  -11.2600   32.2760 C   0  0  0  0  0  0  0  0  0  0  0  0
  -15.7580  -12.1300   33.3960 C   0  0  0  0  0  0  0  0  0  0  0  0
  -17.0800  -10.0130   32.2630 O   0  0  0  0  0  0  0  0  0  0  0  0
  -17.2470   -9.5810   30.8360 C   0  0  0  0  0  3  0  0  0  0  0  0
  -16.5160  -10.5610   29.9670 O   0  0  0  0  0 15  0  0  0  0  0  0
  -13.9980  -14.5090   31.4730 H   0  0  0  0  0  0  0  0  0  0  0  0
  -14.8210  -13.0400   29.5830 H   0  0  0  0  0  0  0  0  0  0  0  0
  -15.9980  -11.8960   34.3730 H   0  0  0  0  0  0  0  0  0  0  0  0
  -17.7920   -8.7250   30.4980 H   0  0  0  0  0  0  0  0  0  0  0  0
  -17.2730   -9.4080   29.7810 H   0  0  0  0  0  0  0  0  0  0  0  0
   -9.2910  -17.0110   37.7680 C   0  0  0  0  0  3  0  0  0  0  0  0
  -10.6180  -17.0780   38.4640 C   0  0  0  0  0  0  0  0  0  0  0  0
  -11.8460  -16.5420   37.7890 C   0  0  0  0  0  0  0  0  0  0  0  0
  -11.7470  -15.9400   36.4190 C   0  0  0  0  0  0  0  0  0  0  0  0
  -10.4200  -15.8730   35.7230 C   0  0  0  0  0  0  0  0  0  0  0  0
   -9.1920  -16.4090   36.3980 C   0  0  0  0  0  0  0  0  0  0  0  0
  -10.6860  -17.4930   39.4070 H   0  0  0  0  0  0  0  0  0  0  0  0
  -12.7600  -16.5880   38.2680 H   0  0  0  0  0  0  0  0  0  0  0  0
  -10.3510  -15.4590   34.7810 H   0  0  0  0  0  0  0  0  0  0  0  0
   -8.2780  -16.3630   35.9190 H   0  0  0  0  0  0  0  0  0  0  0  0
   -8.0620  -17.5470   38.4430 C   0  0  0  0  0  3  0  0  0  0  0  0
   -7.0980  -17.1630   38.1820 H   0  0  0  0  0  0  0  0  0  0  0  0
   -7.9740  -16.7810   37.7010 H   0  0  0  0  0  0  0  0  0  0  0  0
   -8.1860  -18.6210   39.4820 O   0  0  0  0  0  0  0  0  0  0  0  0
   -9.0600  -18.9690   39.7190 H   0  0  0  0  0  0  0  0  0  0  0  0
  -16.7960  -14.9560   35.2260 C   0  0  0  0  0  0  0  0  0  0  0  0
  -17.5200  -14.8690   36.5360 C   0  0  0  0  0  0  0  0  0  0  0  0
  -19.0200  -14.8720   36.5650 C   0  0  0  0  0  0  0  0  0  0  0  0
  -19.7950  -14.9620   35.2840 C   0  0  0  0  0  0  0  0  0  0  0  0
  -19.0700  -15.0490   33.9740 C   0  0  0  0  0  0  0  0  0  0  0  0
  -17.5700  -15.0460   33.9440 N   0  0  0  0  0  0  0  0  0  0  0  0
  -16.9870  -14.8070   37.4180 H   0  0  0  0  0  0  0  0  0  0  0  0
  -19.5190  -14.8120   37.4670 H   0  0  0  0  0  0  0  0  0  0  0  0
  -20.8260  -14.9650   35.3040 H   0  0  0  0  0  0  0  0  0  0  0  0
  -19.6030  -15.1110   33.0930 H   0  0  0  0  0  0  0  0  0  0  0  0
  1  2  2  0
  1 24  1  0
  3 36  1  0
  3  2  1  0
  4  5  1  0
  4  3  2  0
  5  1  1  0
  6  5  1  0
  7 12  1  0
  7  4  1  0
  8  7  2  0
  9 10  2  0
  9  8  1  0
 10 11  1  0
 11 12  2  0
 12 18  1  0
 13 11  1  0
 14 13  1  0
 16  8  1  0
 17  9  1  0
 19 14  1  0
 20 14  1  0
 21 22  1  0
 22 27  1  0
 23 28  1  0
 23 22  2  0
 24 23  1  0
 25 26  1  0
 25 24  2  0
 26 21  2  0
 29 25  1  0
 30 26  1  0
 31 34  1  0
 32 31  1  0
 33 31  1  0
 34 35  1  0
 36 37  1  0
 37 38  2  0
 37 42  1  0
 38 43  1  0
 39 44  1  0
 39 38  1  0
 40 39  2  0
 41 40  1  0
 41 36  2  0
 45 40  1  0
M  END
>  <minimizedAffinity>  (3) 
-9.26566887

$$$$

     RDKit          3D

 57 53  0  0  0  0  0  0  0  0999 V2000
  -17.9160  -15.1080   37.0200 N   0  0  0  0  0  1  0  0  0  0  0  0
  -19.2850  -14.5750   36.7130 C   0  0  0  0  0  2  0  0  0  0  0  0
  -19.2310  -13.9070   35.3720 N   0  0  0  0  0  2  0  0  0  0  0  0
  -17.8300  -14.0260   34.8500 C   0  0  0  0  0  0  0  0  0  0  0  0
  -17.0170  -14.7680   35.8680 C   0  0  0  0  0  0  0  0  0  0  0  0
  -20.1170  -14.6550   37.3190 H   0  0  0  0  0  0  0  0  0  0  0  0
  -16.7190  -17.3340   40.7440 N   0  0  0  0  0  1  0  0  0  0  0  0
  -16.7400  -15.8340   40.7410 C   0  0  0  0  0  2  0  0  0  0  0  0
  -17.1390  -15.0920   39.4990 C   0  0  0  0  0  2  0  0  0  0  0  0
  -17.5170  -15.8500   38.2620 C   0  0  0  0  0  1  0  0  0  0  0  0
  -17.4960  -17.3500   38.2650 C   0  0  0  0  0  2  0  0  0  0  0  0
  -17.0970  -18.0920   39.5060 C   0  0  0  0  0  2  0  0  0  0  0  0
  -16.4700  -15.2930   41.6240 H   0  0  0  0  0  0  0  0  0  0  0  0
  -16.7550  -14.7640   40.7380 H   0  0  0  0  0  0  0  0  0  0  0  0
  -17.1540  -14.0220   39.4970 H   0  0  0  0  0  0  0  0  0  0  0  0
  -17.4240  -14.5630   38.6140 H   0  0  0  0  0  0  0  0  0  0  0  0
  -17.7870  -16.3910   37.3780 H   0  0  0  0  0  0  0  0  0  0  0  0
  -17.7660  -17.8910   37.3810 H   0  0  0  0  0  0  0  0  0  0  0  0
  -17.4810  -18.4200   38.2670 H   0  0  0  0  0  0  0  0  0  0  0  0
  -17.0820  -19.1620   39.5080 H   0  0  0  0  0  0  0  0  0  0  0  0
  -16.8120  -18.6210   40.3910 H   0  0  0  0  0  0  0  0  0  0  0  0
  -16.3200  -18.0760   41.9850 C   0  0  0  0  0  0  0  0  0  0  0  0
  -16.0500  -17.5350   42.8680 H   0  0  0  0  0  0  0  0  0  0  0  0
  -16.3050  -19.1460   41.9870 H   0  0  0  0  0  0  0  0  0  0  0  0
  -16.0350  -18.6050   42.8700 H   0  0  0  0  0  0  0  0  0  0  0  0
  -17.3290  -13.4960   33.5380 C   0  0  0  0  0  0  0  0  0  0  0  0
  -18.0060  -13.8940   32.2620 C   0  0  0  0  0  0  0  0  0  0  0  0
  -17.5060  -13.3640   30.9500 C   0  0  0  0  0  0  0  0  0  0  0  0
  -16.3280  -12.4360   30.9170 C   0  0  0  0  0  0  0  0  0  0  0  0
  -15.8280  -11.9060   29.6060 F   0  0  0  0  0  0  0  0  0  0  0  0
  -15.6500  -12.0380   32.1950 C   0  0  0  0  0  0  0  0  0  0  0  0
  -16.1520  -12.5680   33.5050 C   0  0  0  0  0  0  0  0  0  0  0  0
  -18.8170  -14.5330   32.2840 H   0  0  0  0  0  0  0  0  0  0  0  0
  -17.9720  -13.6380   30.0710 H   0  0  0  0  0  0  0  0  0  0  0  0
  -14.8410  -11.4000   32.1720 H   0  0  0  0  0  0  0  0  0  0  0  0
  -15.6850  -12.2940   34.3850 H   0  0  0  0  0  0  0  0  0  0  0  0
  -15.5620  -15.1120   35.7560 C   0  0  0  0  0  0  0  0  0  0  0  0
  -14.8650  -15.0010   34.4320 C   0  0  0  0  0  0  0  0  0  0  0  0
  -13.4080  -15.3450   34.3200 C   0  0  0  0  0  0  0  0  0  0  0  0
  -12.6500  -15.7980   35.5320 N   0  0  0  0  0  0  0  0  0  0  0  0
  -13.3470  -15.9090   36.8550 C   0  0  0  0  0  0  0  0  0  0  0  0
  -12.5880  -16.3630   38.0670 N   0  0  0  0  0  0  0  0  0  0  0  0
  -14.8030  -15.5660   36.9680 N   0  0  0  0  0  0  0  0  0  0  0  0
  -15.3870  -14.6890   33.5980 H   0  0  0  0  0  0  0  0  0  0  0  0
  -12.9290  -15.2690   33.4100 H   0  0  0  0  0  0  0  0  0  0  0  0
  -13.0460  -16.4350   38.9360 H   0  0  0  0  0  0  0  0  0  0  0  0
  -11.1320  -16.7060   37.9550 C   0  0  0  0  0  0  0  0  0  0  0  0
  -10.6690  -17.6840   36.9160 C   0  0  0  0  0  0  0  0  0  0  0  0
   -9.2140  -18.0260   36.8040 C   0  0  0  0  0  0  0  0  0  0  0  0
   -8.2200  -17.3920   37.7310 C   0  0  0  0  0  0  0  0  0  0  0  0
   -8.6830  -16.4140   38.7710 C   0  0  0  0  0  0  0  0  0  0  0  0
  -10.1390  -16.0710   38.8830 C   0  0  0  0  0  0  0  0  0  0  0  0
  -11.3530  -18.1200   36.2780 H   0  0  0  0  0  0  0  0  0  0  0  0
   -8.8950  -18.6990   36.0890 H   0  0  0  0  0  0  0  0  0  0  0  0
   -7.2190  -17.6280   37.6550 H   0  0  0  0  0  0  0  0  0  0  0  0
   -7.9990  -15.9780   39.4090 H   0  0  0  0  0  0  0  0  0  0  0  0
  -10.4570  -15.3980   39.5980 H   0  0  0  0  0  0  0  0  0  0  0  0
  2  6  1  0
  3  2  1  0
  4  3  1  0
  4  5  2  0
  5  1  1  0
  7 22  1  0
  8 13  1  0
 11 19  1  0
 12 20  1  0
 12 21  1  0
 14  8  1  0
 15  9  1  0
 16  9  1  0
 17 10  1  0
 18 11  1  0
 22 24  1  0
 22 23  1  0
 22 25  1  0
 26  4  1  0
 27 33  1  0
 27 26  2  0
 28 27  1  0
 29 28  2  0
 29 31  1  0
 30 29  1  0
 31 32  2  0
 32 26  1  0
 32 36  1  0
 34 28  1  0
 35 31  1  0
 37  5  1  0
 37 43  2  0
 38 37  1  0
 39 38  2  0
 39 40  1  0
 40 41  2  0
 41 43  1  0
 41 42  1  0
 42 46  1  0
 44 38  1  0
 45 39  1  0
 47 42  1  0
 47 52  1  0
 48 47  2  0
 49 48  1  0
 49 50  2  0
 50 51  1  0
 51 52  2  0
 51 56  1  0
 52 57  1  0
 53 48  1  0
 54 49  1  0
 55 50  1  0
M  END
>  <minimizedAffinity>  (4) 
-8.3081522

$$$$

     RDKit          3D

 54 52  0  0  1  0  0  0  0  0999 V2000
  -17.3270  -14.5080   34.8580 C   0  0  0  0  0  0  0  0  0  0  0  0
  -17.4370  -15.2730   36.1440 C   0  0  0  0  0  0  0  0  0  0  0  0
  -18.8910  -15.4010   36.4840 N   0  0  0  0  0  0  0  0  0  0  0  0
  -19.6810  -14.7160   35.4090 C   0  0  0  0  0  0  0  0  0  0  0  0
  -18.7150  -14.1640   34.4040 N   0  0  0  0  0  0  0  0  0  0  0  0
  -20.7100  -14.6380   35.3670 H   0  0  0  0  0  0  0  0  0  0  0  0
  -19.0720  -13.4020   33.1620 C   0  0  0  0  0  2  0  0  0  0  0  0
  -19.4380  -11.9510   33.2520 C   0  0  0  0  0  2  0  0  0  0  0  0
  -19.7950  -11.1890   32.0090 C   0  0  0  0  0  2  0  0  0  0  0  0
  -19.7860  -11.8790   30.6780 N   0  0  0  0  0  1  0  0  0  0  0  0
  -19.4200  -13.3310   30.5890 C   0  0  0  0  0  2  0  0  0  0  0  0
  -19.0630  -14.0930   31.8300 C   0  0  0  0  0  2  0  0  0  0  0  0
  -19.3270  -12.8600   32.2760 H   0  0  0  0  0  0  0  0  0  0  0  0
  -19.4440  -11.4580   34.2010 H   0  0  0  0  0  0  0  0  0  0  0  0
  -19.6990  -10.9140   33.3150 H   0  0  0  0  0  0  0  0  0  0  0  0
  -20.0560  -10.1540   32.0740 H   0  0  0  0  0  0  0  0  0  0  0  0
  -20.0490  -10.6460   31.1240 H   0  0  0  0  0  0  0  0  0  0  0  0
  -20.0290  -11.3620   29.8340 H   0  0  0  0  0  0  0  0  0  0  0  0
  -19.4140  -13.8240   29.6380 H   0  0  0  0  0  0  0  0  0  0  0  0
  -19.1600  -14.3670   30.5240 H   0  0  0  0  0  0  0  0  0  0  0  0
  -18.8030  -15.1280   31.7670 H   0  0  0  0  0  0  0  0  0  0  0  0
  -18.8090  -14.6360   32.7170 H   0  0  0  0  0  0  0  0  0  0  0  0
  -16.2920  -15.8140   36.9480 C   0  0  0  0  0  0  0  0  0  0  0  0
  -15.3790  -14.8740   37.6800 C   0  0  0  0  0  0  0  0  0  0  0  0
  -14.2350  -15.4150   38.4840 C   0  0  0  0  0  0  0  0  0  0  0  0
  -14.0020  -16.8940   38.5570 C   0  0  0  0  0  0  0  0  0  0  0  0
  -12.8560  -17.4340   39.3610 F   0  0  0  0  0  0  0  0  0  0  0  0
  -14.9140  -17.8340   37.8240 C   0  0  0  0  0  0  0  0  0  0  0  0
  -16.0580  -17.2930   37.0210 C   0  0  0  0  0  0  0  0  0  0  0  0
  -15.5400  -13.8560   37.6300 H   0  0  0  0  0  0  0  0  0  0  0  0
  -13.6070  -14.7680   38.9880 H   0  0  0  0  0  0  0  0  0  0  0  0
  -14.7530  -18.8520   37.8740 H   0  0  0  0  0  0  0  0  0  0  0  0
  -16.6860  -17.9400   36.5170 H   0  0  0  0  0  0  0  0  0  0  0  0
  -13.6900  -14.8130   33.2990 C   0  0  0  0  0  0  0  0  0  0  0  0
  -13.5070  -13.4350   32.7360 N   0  0  0  0  0  0  0  0  0  0  0  0
  -14.5960  -12.4150   32.8810 C   0  0  0  0  0  0  0  0  0  0  0  0
  -15.8700  -12.7720   33.5880 C   0  0  0  0  0  0  0  0  0  0  0  0
  -16.0540  -14.1510   34.1510 C   0  0  0  0  0  3  0  0  0  0  0  0
  -14.9640  -15.1710   34.0060 N   0  0  0  0  0  0  0  0  0  0  0  0
  -14.4700  -11.4660   32.4940 H   0  0  0  0  0  0  0  0  0  0  0  0
  -16.6200  -12.0700   33.6880 H   0  0  0  0  0  0  0  0  0  0  0  0
  -12.6010  -15.8340   33.1540 O   0  0  0  0  0  0  0  0  0  0  0  0
   -9.5590  -16.3570   36.4280 C   0  0  0  0  0  0  0  0  0  0  0  0
  -10.9640  -15.9560   36.7670 C   0  0  0  0  0  0  0  0  0  0  0  0
  -11.9780  -15.7810   35.6750 C   0  0  0  0  0  0  0  0  0  0  0  0
  -11.5870  -16.0080   34.2450 C   0  0  0  0  0  0  0  0  0  0  0  0
  -10.1820  -16.4090   33.9060 C   0  0  0  0  0  0  0  0  0  0  0  0
   -9.1680  -16.5840   34.9980 C   0  0  0  0  0  0  0  0  0  0  0  0
  -11.2330  -15.8000   37.7510 H   0  0  0  0  0  0  0  0  0  0  0  0
  -12.9450  -15.5050   35.9090 H   0  0  0  0  0  0  0  0  0  0  0  0
   -9.9120  -16.5660   32.9220 H   0  0  0  0  0  0  0  0  0  0  0  0
   -8.2010  -16.8600   34.7650 H   0  0  0  0  0  0  0  0  0  0  0  0
   -7.5300  -16.7060   38.6110 N   0  0  0  0  0  1  0  0  0  0  0  0
   -8.5450  -16.5320   37.5200 C   0  0  0  0  0  2  0  0  0  0  0  0
  1  2  2  0
  2  3  1  0
  2 23  1  0
  4  3  2  0
  5  1  1  0
  5  4  1  0
  6  4  1  0
  7  5  1  0
  8 15  1  0
  8 14  1  0
  9 16  1  0
 12 22  1  0
 13  7  1  0
 17  9  1  0
 18 10  1  0
 19 11  1  0
 20 11  1  0
 21 12  1  0
 23 29  2  0
 23 24  1  0
 24 25  2  0
 25 26  1  0
 25 31  1  0
 26 27  1  0
 28 32  1  0
 28 26  2  0
 29 28  1  0
 30 24  1  0
 33 29  1  0
 34 39  2  0
 35 36  1  0
 35 34  2  0
 36 37  2  0
 37 41  1  0
 37 38  1  0
 38  1  1  0
 39 38  1  0
 40 36  1  0
 42 34  1  0
 42 46  1  0
 43 44  1  0
 43 54  1  0
 44 49  1  0
 45 50  1  0
 45 44  2  0
 46 45  1  0
 47 46  2  0
 47 48  1  0
 48 43  2  0
 51 47  1  0
 52 48  1  0
 54 53  1  0
M  END
>  <minimizedAffinity>  (5) 
-7.66649342

$$$$

     RDKit          3D

 58 51  0  0  0  0  0  0  0  0999 V2000
  -14.4240  -16.1240   36.8000 N   0  0  0  0  0 15  0  0  0  0  0  0
  -15.8450  -15.7680   36.4790 C   0  0  0  0  0  2  0  0  0  0  0  0
  -15.8440  -14.9230   35.2400 N   0  0  0  0  0  2  0  0  0  0  0  0
  -14.4210  -14.7570   34.7940 C   0  0  0  0  0  0  0  0  0  0  0  0
  -13.8110  -14.0250   33.6350 C   0  0  0  0  0  0  0  0  0  0  0  0
  -12.3240  -14.0370   33.4390 N   0  0  0  0  0  0  0  0  0  0  0  0
  -11.4470  -14.7790   34.4030 C   0  0  0  0  0  0  0  0  0  0  0  0
  -12.0560  -15.5100   35.5620 C   0  0  0  0  0  0  0  0  0  0  0  0
  -13.5430  -15.4990   35.7580 C   0  0  0  0  0  3  0  0  0  0  0  0
  -10.4230  -14.7870   34.2690 H   0  0  0  0  0  0  0  0  0  0  0  0
  -17.0560  -16.1830   37.2610 C   0  0  0  0  0  0  0  0  0  0  0  0
  -17.1400  -17.3480   38.2030 N   0  0  0  0  0  0  0  0  0  0  0  0
  -18.5310  -17.3920   38.7630 O   0  0  0  0  0  0  0  0  0  0  0  0
  -19.3070  -16.2550   38.1670 N   0  0  0  0  0  0  0  0  0  0  0  0
  -18.3950  -15.5070   37.2380 C   0  0  0  0  0  0  0  0  0  0  0  0
  -18.7590  -14.2980   36.4300 N   0  0  0  0  0  0  0  0  0  0  0  0
  -18.0880  -13.8760   35.8470 H   0  0  0  0  0  0  0  0  0  0  0  0
  -19.6680  -13.9250   36.4820 H   0  0  0  0  0  0  0  0  0  0  0  0
  -13.9630  -16.9580   37.9570 C   0  0  0  0  0  3  0  0  0  0  0  0
  -13.9260  -18.0240   37.8680 H   0  0  0  0  0  0  0  0  0  0  0  0
  -14.2550  -17.4290   37.0410 H   0  0  0  0  0  0  0  0  0  0  0  0
  -13.5550  -16.3000   39.2410 C   0  0  0  0  0  0  0  0  0  0  0  0
  -13.5920  -15.2340   39.3310 H   0  0  0  0  0  0  0  0  0  0  0  0
  -13.2260  -16.8950   40.0670 H   0  0  0  0  0  0  0  0  0  0  0  0
  -13.2630  -15.8300   40.1570 H   0  0  0  0  0  0  0  0  0  0  0  0
  -14.6890  -13.2830   32.6710 C   0  0  0  0  0  0  0  0  0  0  0  0
  -15.5660  -12.5410   31.7070 C   0  0  0  0  0  0  0  0  0  0  0  0
  -16.4440  -11.7980   30.7430 C   0  0  0  0  0  0  0  0  0  0  0  0
  -17.1300  -13.0820   30.3790 C   0  0  0  0  0  0  0  0  0  0  0  0
  -16.8320  -13.9980   30.8450 H   0  0  0  0  0  0  0  0  0  0  0  0
  -17.9160  -13.0810   29.6530 H   0  0  0  0  0  0  0  0  0  0  0  0
  -17.6190  -13.9970   30.1190 H   0  0  0  0  0  0  0  0  0  0  0  0
  -15.7580  -10.5150   31.1080 C   0  0  0  0  0  0  0  0  0  0  0  0
  -16.0560   -9.5980   30.6420 H   0  0  0  0  0  0  0  0  0  0  0  0
  -14.9710  -10.5160   31.8330 H   0  0  0  0  0  0  0  0  0  0  0  0
  -15.2690   -9.5990   31.3670 H   0  0  0  0  0  0  0  0  0  0  0  0
  -17.3210  -11.0560   29.7790 O   0  0  0  0  0  0  0  0  0  0  0  0
  -17.9890  -11.5350   29.2640 H   0  0  0  0  0  0  0  0  0  0  0  0
  -11.1790  -16.2530   36.5260 O   0  0  0  0  0  0  0  0  0  0  0  0
   -9.6920  -16.2620   36.3320 C   0  0  0  0  0  3  0  0  0  0  0  0
   -9.2580  -15.7580   35.4930 H   0  0  0  0  0  0  0  0  0  0  0  0
   -8.6300  -16.2690   36.1930 H   0  0  0  0  0  0  0  0  0  0  0  0
   -8.8120  -16.9800   37.3120 C   0  0  0  0  0  1  0  0  0  0  0  0
   -7.8470  -16.2050   38.1600 C   0  0  0  0  0  2  0  0  0  0  0  0
   -6.9670  -16.9230   39.1400 C   0  0  0  0  0  2  0  0  0  0  0  0
   -7.0520  -18.4140   39.2730 N   0  0  0  0  0  1  0  0  0  0  0  0
   -8.0170  -19.1890   38.4250 C   0  0  0  0  0  2  0  0  0  0  0  0
   -8.8970  -18.4710   37.4450 C   0  0  0  0  0  2  0  0  0  0  0  0
   -8.1840  -17.4910   38.0110 H   0  0  0  0  0  0  0  0  0  0  0  0
   -7.7860  -15.1410   38.0660 H   0  0  0  0  0  0  0  0  0  0  0  0
   -7.1580  -15.6530   38.7650 H   0  0  0  0  0  0  0  0  0  0  0  0
   -6.2780  -16.3700   39.7450 H   0  0  0  0  0  0  0  0  0  0  0  0
   -6.3390  -17.4340   39.8400 H   0  0  0  0  0  0  0  0  0  0  0  0
   -6.4540  -18.9020   39.9400 H   0  0  0  0  0  0  0  0  0  0  0  0
   -8.0780  -20.2530   38.5190 H   0  0  0  0  0  0  0  0  0  0  0  0
   -8.7050  -19.7410   37.8200 H   0  0  0  0  0  0  0  0  0  0  0  0
   -9.5850  -19.0240   36.8400 H   0  0  0  0  0  0  0  0  0  0  0  0
   -9.5240  -17.9600   36.7450 H   0  0  0  0  0  0  0  0  0  0  0  0
  2 11  1  0
  3  2  1  0
  4  3  1  0
  4  9  1  0
  5  4  2  0
  6  5  1  0
  6  7  2  0
  7  8  1  0
  8  9  2  0
  8 39  1  0
 10  7  1  0
 11 12  2  0
 12 13  1  0
 14 13  1  0
 15 11  1  0
 15 14  2  0
 16 18  1  0
 16 15  1  0
 17 16  1  0
 19 22  1  0
 20 19  1  0
 21 19  1  0
 22 23  1  0
 22 24  1  0
 22 25  1  0
 26  5  1  0
 27 26  3  0
 28 33  1  0
 28 27  1  0
 29 28  1  0
 29 30  1  0
 31 29  1  0
 32 29  1  0
 33 36  1  0
 33 35  1  0
 34 33  1  0
 37 28  1  0
 38 37  1  0
 40 39  1  0
 41 40  1  0
 42 40  1  0
 43 49  1  0
 44 51  1  0
 45 52  1  0
 45 53  1  0
 46 54  1  0
 47 55  1  0
 50 44  1  0
 56 47  1  0
 57 48  1  0
 58 48  1  0
M  END
>  <minimizedAffinity>  (6) 
-10.2933722

$$$$

     RDKit          3D

 42 44  0  0  0  0  0  0  0  0999 V2000
  -12.0790  -16.1130   36.4830 C   0  0  0  0  0  0  0  0  0  0  0  0
  -13.1240  -15.4020   35.6760 C   0  0  0  0  0  0  0  0  0  0  0  0
  -14.5570  -15.4200   36.1210 C   0  0  0  0  0  0  0  0  0  0  0  0
  -14.9440  -16.1490   37.3730 N   0  0  0  0  0  0  0  0  0  0  0  0
  -13.8990  -16.8600   38.1800 C   0  0  0  0  0  0  0  0  0  0  0  0
  -14.2860  -17.5900   39.4330 N   0  0  0  0  0  0  0  0  0  0  0  0
  -12.4670  -16.8420   37.7360 N   0  0  0  0  0  0  0  0  0  0  0  0
  -12.8580  -14.9000   34.8140 H   0  0  0  0  0  0  0  0  0  0  0  0
  -15.2760  -14.9310   35.5650 H   0  0  0  0  0  0  0  0  0  0  0  0
  -13.6000  -18.0570   39.9620 H   0  0  0  0  0  0  0  0  0  0  0  0
  -15.7190  -17.6080   39.8780 C   0  0  0  0  0  0  0  0  0  0  0  0
  -16.1660  -18.5820   40.9270 C   0  0  0  0  0  0  0  0  0  0  0  0
  -17.5980  -18.6000   41.3720 C   0  0  0  0  0  0  0  0  0  0  0  0
  -18.5830  -17.6440   40.7670 C   0  0  0  0  0  0  0  0  0  0  0  0
  -18.1360  -16.6700   39.7180 C   0  0  0  0  0  0  0  0  0  0  0  0
  -16.7040  -16.6520   39.2730 C   0  0  0  0  0  0  0  0  0  0  0  0
  -15.4880  -19.2400   41.3430 H   0  0  0  0  0  0  0  0  0  0  0  0
  -17.9060  -19.2700   42.0940 H   0  0  0  0  0  0  0  0  0  0  0  0
  -19.5690  -17.6560   41.0730 H   0  0  0  0  0  0  0  0  0  0  0  0
  -16.3960  -15.9810   38.5510 H   0  0  0  0  0  0  0  0  0  0  0  0
  -19.1210  -15.7140   39.1140 C   0  0  0  0  0  0  0  0  0  0  0  0
  -19.4550  -14.4340   39.8210 N   0  0  0  0  0  0  0  0  0  0  0  0
  -19.7730  -16.0370   37.8020 O   0  0  0  0  0  0  0  0  0  0  0  0
  -19.0280  -14.2210   40.6820 H   0  0  0  0  0  0  0  0  0  0  0  0
  -20.1010  -13.8060   39.4240 H   0  0  0  0  0  0  0  0  0  0  0  0
  -10.6470  -16.0950   36.0390 N   0  0  0  0  0  0  0  0  0  0  0  0
  -10.4170  -15.7990   35.1280 H   0  0  0  0  0  0  0  0  0  0  0  0
   -7.3960  -17.3960   38.8650 C   0  0  0  0  0  0  0  0  0  0  0  0
   -7.3890  -16.0060   38.3030 C   0  0  0  0  0  0  0  0  0  0  0  0
   -8.4720  -15.5720   37.3610 C   0  0  0  0  0  0  0  0  0  0  0  0
   -9.5630  -16.5290   36.9810 C   0  0  0  0  0  0  0  0  0  0  0  0
   -9.5710  -17.9190   37.5430 C   0  0  0  0  0  0  0  0  0  0  0  0
   -8.4870  -18.3530   38.4860 C   0  0  0  0  0  0  0  0  0  0  0  0
   -6.6380  -15.3470   38.5640 H   0  0  0  0  0  0  0  0  0  0  0  0
   -8.4670  -14.6150   36.9740 H   0  0  0  0  0  0  0  0  0  0  0  0
  -10.3210  -18.5780   37.2820 H   0  0  0  0  0  0  0  0  0  0  0  0
   -6.3130  -17.8300   39.8080 C   0  0  0  0  0  0  0  0  0  0  0  0
   -5.5350  -17.1470   40.0790 H   0  0  0  0  0  0  0  0  0  0  0  0
   -6.3180  -18.8220   40.2090 H   0  0  0  0  0  0  0  0  0  0  0  0
   -5.5400  -18.1390   40.4800 H   0  0  0  0  0  0  0  0  0  0  0  0
   -8.4950  -19.7430   39.0480 O   0  0  0  0  0  0  0  0  0  0  0  0
   -7.8180  -20.0140   39.6370 H   0  0  0  0  0  0  0  0  0  0  0  0
  1  7  2  0
  2  3  2  0
  2  1  1  0
  3  4  1  0
  4  5  2  0
  5  6  1  0
  6 11  1  0
  6 10  1  0
  7  5  1  0
  8  2  1  0
  9  3  1  0
 11 12  1  0
 12 17  1  0
 12 13  2  0
 13 18  1  0
 14 19  1  0
 14 13  1  0
 15 14  2  0
 16 15  1  0
 16 11  2  0
 20 16  1  0
 21 15  1  0
 21 22  1  0
 22 24  1  0
 23 21  2  0
 25 22  1  0
 26  1  1  0
 26 31  1  0
 27 26  1  0
 28 37  1  0
 29 34  1  0
 29 28  2  0
 30 29  1  0
 31 30  2  0
 31 32  1  0
 32 33  2  0
 33 28  1  0
 33 41  1  0
 35 30  1  0
 36 32  1  0
 37 38  1  0
 37 39  1  0
 37 40  1  0
 41 42  1  0
M  END
>  <minimizedAffinity>  (7) 
-8.81425571

$$$$

     RDKit          3D

 46 47  0  0  0  0  0  0  0  0999 V2000
  -10.2280  -15.9960   36.4410 C   0  0  0  0  0  0  0  0  0  0  0  0
  -11.2710  -16.6970   37.2600 C   0  0  0  0  0  0  0  0  0  0  0  0
  -12.7090  -16.6560   36.8380 C   0  0  0  0  0  0  0  0  0  0  0  0
  -13.1050  -15.9130   35.5960 C   0  0  0  0  0  0  0  0  0  0  0  0
  -12.0620  -15.2130   34.7760 C   0  0  0  0  0  0  0  0  0  0  0  0
  -10.6240  -15.2540   35.1990 C   0  0  0  0  0  0  0  0  0  0  0  0
  -10.9980  -17.2080   38.1150 H   0  0  0  0  0  0  0  0  0  0  0  0
   -9.9060  -14.7710   34.6350 H   0  0  0  0  0  0  0  0  0  0  0  0
  -13.7520  -17.3570   37.6570 C   0  0  0  0  0  0  0  0  0  0  0  0
  -14.7780  -17.3270   37.3550 H   0  0  0  0  0  0  0  0  0  0  0  0
  -13.4700  -17.8860   38.5430 H   0  0  0  0  0  0  0  0  0  0  0  0
  -14.4960  -17.8570   38.2410 H   0  0  0  0  0  0  0  0  0  0  0  0
  -14.5440  -15.8720   35.1730 C   0  0  0  0  0  0  0  0  0  0  0  0
  -15.4790  -14.8770   35.7930 C   0  0  0  0  0  0  0  0  0  0  0  0
  -14.8900  -16.5290   34.4560 H   0  0  0  0  0  0  0  0  0  0  0  0
  -15.1330  -14.2200   36.5100 H   0  0  0  0  0  0  0  0  0  0  0  0
  -16.9180  -14.8360   35.3700 C   0  0  0  0  0  0  0  0  0  0  0  0
  -17.9650  -15.5050   36.2090 C   0  0  0  0  0  0  0  0  0  0  0  0
  -19.4040  -15.4640   35.7860 N   0  0  0  0  0  0  0  0  0  0  0  0
  -19.7950  -14.7530   34.5240 C   0  0  0  0  0  0  0  0  0  0  0  0
  -18.7470  -14.0830   33.6860 C   0  0  0  0  0  0  0  0  0  0  0  0
  -17.3090  -14.1240   34.1080 C   0  0  0  0  0  0  0  0  0  0  0  0
  -17.6970  -15.9950   37.0770 H   0  0  0  0  0  0  0  0  0  0  0  0
  -20.7850  -14.7250   34.2340 H   0  0  0  0  0  0  0  0  0  0  0  0
  -16.5880  -13.6630   33.5310 H   0  0  0  0  0  0  0  0  0  0  0  0
  -19.1380  -13.3720   32.4240 C   0  0  0  0  0  0  0  0  0  0  0  0
  -19.7410  -12.0000   32.4930 O   0  0  0  0  0  0  0  0  0  0  0  0
  -18.9260  -14.0320   31.0940 N   0  0  0  0  0  0  0  0  0  0  0  0
  -18.5300  -14.9330   31.0500 H   0  0  0  0  0  0  0  0  0  0  0  0
  -19.3170  -13.3210   29.8330 C   0  0  0  0  0  0  0  0  0  0  0  0
  -19.1660  -13.7920   28.8840 H   0  0  0  0  0  0  0  0  0  0  0  0
  -19.7470  -12.3420   29.8820 H   0  0  0  0  0  0  0  0  0  0  0  0
  -19.5960  -12.8130   28.9330 H   0  0  0  0  0  0  0  0  0  0  0  0
  -12.4580  -14.4700   33.5340 C   0  0  0  0  0  0  0  0  0  0  0  0
  -11.7140  -13.9700   32.9500 H   0  0  0  0  0  0  0  0  0  0  0  0
  -13.4840  -14.4410   33.2330 H   0  0  0  0  0  0  0  0  0  0  0  0
  -12.7400  -13.9410   32.6480 H   0  0  0  0  0  0  0  0  0  0  0  0
   -8.7890  -16.0370   36.8640 O   0  0  0  0  0  0  0  0  0  0  0  0
   -7.5780  -18.2390   37.5240 N   0  0  0  0  0  0  0  0  0  0  0  0
   -8.3440  -17.0100   37.9150 C   0  0  0  0  0  0  0  0  0  0  0  0
   -8.6650  -16.7540   39.3580 O   0  0  0  0  0  0  0  0  0  0  0  0
   -7.3680  -18.4070   36.5770 H   0  0  0  0  0  0  0  0  0  0  0  0
   -7.1330  -19.2120   38.5750 C   0  0  0  0  0  0  0  0  0  0  0  0
   -7.3620  -19.0290   39.6050 H   0  0  0  0  0  0  0  0  0  0  0  0
   -6.5870  -20.0890   38.2960 H   0  0  0  0  0  0  0  0  0  0  0  0
   -6.8150  -19.9060   39.3260 H   0  0  0  0  0  0  0  0  0  0  0  0
  1 38  1  0
  1  2  1  0
  2  7  1  0
  3  2  2  0
  3  9  1  0
  4  3  1  0
  5  6  1  0
  5  4  2  0
  6  1  2  0
  8  6  1  0
  9 12  1  0
  9 11  1  0
 10  9  1  0
 13  4  1  0
 13 14  2  0
 14 16  1  0
 15 13  1  0
 17 14  1  0
 17 18  1  0
 18 23  1  0
 19 18  2  0
 20 19  1  0
 21 22  1  0
 21 20  2  0
 22 17  2  0
 24 20  1  0
 25 22  1  0
 26 27  2  0
 26 21  1  0
 28 26  1  0
 29 28  1  0
 30 32  1  0
 30 28  1  0
 31 30  1  0
 33 30  1  0
 34  5  1  0
 35 34  1  0
 36 34  1  0
 37 34  1  0
 38 40  1  0
 39 40  1  0
 39 43  1  0
 40 41  2  0
 42 39  1  0
 43 46  1  0
 43 44  1  0
 45 43  1  0
M  END
>  <minimizedAffinity>  (8) 
-8.45714378

$$$$

     RDKit          3D

 72 70  0  0  0  0  0  0  0  0999 V2000
  -18.5030  -10.4430   33.0050 C   0  0  0  0  0  0  0  0  0  0  0  0
  -18.7690  -10.1680   31.5550 C   0  0  0  0  0  0  0  0  0  0  0  0
  -17.7560  -10.5590   30.5190 C   0  0  0  0  0  0  0  0  0  0  0  0
  -16.4770  -11.2230   30.9350 C   0  0  0  0  0  0  0  0  0  0  0  0
  -16.2110  -11.4980   32.3850 C   0  0  0  0  0  0  0  0  0  0  0  0
  -17.2240  -11.1080   33.4200 C   0  0  0  0  0  0  0  0  0  0  0  0
  -19.6490   -9.7110   31.2690 H   0  0  0  0  0  0  0  0  0  0  0  0
  -17.9390  -10.3700   29.5220 H   0  0  0  0  0  0  0  0  0  0  0  0
  -15.7800  -11.4920   30.2220 H   0  0  0  0  0  0  0  0  0  0  0  0
  -17.0410  -11.2970   34.4180 H   0  0  0  0  0  0  0  0  0  0  0  0
  -14.9330  -12.1630   32.8000 N   0  0  0  0  0  0  0  0  0  0  0  0
  -14.9710  -13.4690   33.5370 C   0  0  0  0  0  0  0  0  0  0  0  0
  -16.2890  -14.1100   33.8590 O   0  0  0  0  0  0  0  0  0  0  0  0
  -14.0680  -11.7420   32.5900 H   0  0  0  0  0  0  0  0  0  0  0  0
  -13.6920  -14.1340   33.9530 C   0  0  0  0  0  0  0  0  0  0  0  0
  -13.5090  -14.5880   35.3700 C   0  0  0  0  0  0  0  0  0  0  0  0
  -12.2300  -15.2530   35.7860 C   0  0  0  0  0  0  0  0  0  0  0  0
  -11.1350  -15.4630   34.7830 C   0  0  0  0  0  0  0  0  0  0  0  0
  -11.3180  -15.0090   33.3650 C   0  0  0  0  0  0  0  0  0  0  0  0
  -12.5970  -14.3450   32.9500 C   0  0  0  0  0  0  0  0  0  0  0  0
  -14.2630  -14.4430   36.0600 H   0  0  0  0  0  0  0  0  0  0  0  0
  -12.1040  -15.5650   36.7610 H   0  0  0  0  0  0  0  0  0  0  0  0
  -10.5640  -15.1540   32.6750 H   0  0  0  0  0  0  0  0  0  0  0  0
  -12.7220  -14.0320   31.9750 H   0  0  0  0  0  0  0  0  0  0  0  0
   -9.8560  -16.1280   35.1980 O   0  0  0  0  0  0  0  0  0  0  0  0
   -9.3180  -15.9210   36.5830 C   0  0  0  0  0  0  0  0  0  0  0  0
   -8.7410  -15.0480   36.8090 H   0  0  0  0  0  0  0  0  0  0  0  0
   -8.9340  -15.7730   37.5710 H   0  0  0  0  0  0  0  0  0  0  0  0
   -9.5880  -16.9370   37.6530 C   0  0  0  0  0  0  0  0  0  0  0  0
   -8.8720  -17.7060   37.8540 H   0  0  0  0  0  0  0  0  0  0  0  0
   -9.7820  -17.6620   38.4160 H   0  0  0  0  0  0  0  0  0  0  0  0
  -10.8630  -16.8750   38.4410 N   0  0  0  0  0  0  0  0  0  0  0  0
  -10.9050  -16.1280   39.7420 C   0  0  0  0  0  0  0  0  0  0  0  0
  -12.1810  -16.0670   40.5300 C   0  0  0  0  0  2  0  0  0  0  0  0
  -13.4130  -16.7510   40.0170 O   0  0  0  0  0  1  0  0  0  0  0  0
  -13.3710  -17.4970   38.7170 C   0  0  0  0  0  3  0  0  0  0  0  0
  -12.0970  -17.5590   37.9290 C   0  0  0  0  0  2  0  0  0  0  0  0
  -10.0270  -15.6410   40.1070 H   0  0  0  0  0  0  0  0  0  0  0  0
  -10.9360  -15.5960   40.6690 H   0  0  0  0  0  0  0  0  0  0  0  0
  -12.2110  -15.5340   41.4580 H   0  0  0  0  0  0  0  0  0  0  0  0
  -13.0900  -16.0220   41.0920 H   0  0  0  0  0  0  0  0  0  0  0  0
  -14.2500  -17.9850   38.3510 H   0  0  0  0  0  0  0  0  0  0  0  0
  -13.3410  -18.0290   37.7890 H   0  0  0  0  0  0  0  0  0  0  0  0
  -12.0670  -18.0910   37.0010 H   0  0  0  0  0  0  0  0  0  0  0  0
  -11.1870  -17.6030   37.3660 H   0  0  0  0  0  0  0  0  0  0  0  0
  -19.5160  -10.0530   34.0400 O   0  0  0  0  0  0  0  0  0  0  0  0
  -18.9060  -13.9320   37.6460 N   0  0  0  0  0 15  0  0  0  0  0  0
  -18.8440  -13.8310   39.1420 C   0  0  0  0  0  2  0  0  0  0  0  0
  -18.9860  -12.3860   39.5160 N   0  0  0  0  0  2  0  0  0  0  0  0
  -19.1370  -11.5930   38.2520 C   0  0  0  0  0  0  0  0  0  0  0  0
  -19.3130  -10.1240   38.0030 C   0  0  0  0  0  0  0  0  0  0  0  0
  -19.4390   -9.6110   36.5990 N   0  0  0  0  0  0  0  0  0  0  0  0
  -19.3900  -10.5660   35.4440 C   0  0  0  0  0  0  0  0  0  0  0  0
  -19.2140  -12.0350   35.6930 C   0  0  0  0  0  0  0  0  0  0  0  0
  -19.0880  -12.5480   37.0960 C   0  0  0  0  0  3  0  0  0  0  0  0
  -19.3470   -9.4670   38.7980 H   0  0  0  0  0  0  0  0  0  0  0  0
  -19.1800  -12.6920   34.8980 H   0  0  0  0  0  0  0  0  0  0  0  0
  -18.6700  -14.9760   40.0960 C   0  0  0  0  0  0  0  0  0  0  0  0
  -19.7660  -15.6770   40.8410 N   0  0  0  0  0  0  0  0  0  0  0  0
  -19.1420  -16.7550   41.6780 O   0  0  0  0  0  0  0  0  0  0  0  0
  -17.6600  -16.7190   41.4500 N   0  0  0  0  0  0  0  0  0  0  0  0
  -17.3670  -15.6200   40.4720 C   0  0  0  0  0  0  0  0  0  0  0  0
  -16.0120  -15.2330   39.9600 N   0  0  0  0  0  0  0  0  0  0  0  0
  -15.9220  -14.4930   39.3170 H   0  0  0  0  0  0  0  0  0  0  0  0
  -15.2130  -15.7170   40.2680 H   0  0  0  0  0  0  0  0  0  0  0  0
  -18.8060  -15.1940   36.8430 C   0  0  0  0  0  3  0  0  0  0  0  0
  -19.6840  -15.6220   36.4060 H   0  0  0  0  0  0  0  0  0  0  0  0
  -19.7560  -14.7220   36.9800 H   0  0  0  0  0  0  0  0  0  0  0  0
  -17.4740  -15.8570   36.6500 C   0  0  0  0  0  0  0  0  0  0  0  0
  -16.5960  -15.4290   37.0860 H   0  0  0  0  0  0  0  0  0  0  0  0
  -17.4020  -16.7570   36.0760 H   0  0  0  0  0  0  0  0  0  0  0  0
  -16.5240  -16.3290   36.5120 H   0  0  0  0  0  0  0  0  0  0  0  0
  1  6  1  0
  1 46  1  0
  2  1  2  0
  3  4  2  0
  3  2  1  0
  4  5  1  0
  5 11  1  0
  5  6  2  0
  6 10  1  0
  7  2  1  0
  8  3  1  0
  9  4  1  0
 11 12  1  0
 12 13  2  0
 12 15  1  0
 14 11  1  0
 15 16  1  0
 16 17  2  0
 16 21  1  0
 17 22  1  0
 18 25  1  0
 18 17  1  0
 19 18  2  0
 20 19  1  0
 20 15  2  0
 23 19  1  0
 24 20  1  0
 25 26  1  0
 26 27  1  0
 26 28  1  0
 26 29  1  0
 29 30  1  0
 29 31  1  0
 29 32  1  0
 32 33  2  0
 33 38  1  0
 33 39  1  0
 34 41  1  0
 34 40  1  0
 36 35  1  0
 42 36  1  0
 43 36  1  0
 44 37  1  0
 45 37  1  0
 46 53  1  0
 48 49  1  0
 48 58  1  0
 50 49  1  0
 51 50  2  0
 51 56  1  0
 52 51  1  0
 53 54  1  0
 53 52  2  0
 54 55  2  0
 55 50  1  0
 57 54  1  0
 58 62  1  0
 58 59  2  0
 59 60  1  0
 61 60  1  0
 62 61  2  0
 63 65  1  0
 63 62  1  0
 64 63  1  0
 66 68  1  0
 67 66  1  0
 69 66  1  0
 69 70  1  0
 71 69  1  0
 72 69  1  0
M  END
>  <minimizedAffinity>  (9) 
-9.849823

$$$$

     RDKit          3D

 68 66  0  0  1  0  0  0  0  0999 V2000
  -19.0520  -12.9160   36.0800 C   0  0  0  0  0  0  0  0  0  0  0  0
  -18.6600  -12.3210   34.7600 C   0  0  0  0  0  0  0  0  0  0  0  0
  -18.6130  -13.1840   33.5330 C   0  0  0  0  0  3  0  0  0  0  0  0
  -18.9570  -14.6400   33.6260 C   0  0  0  0  0  0  0  0  0  0  0  0
  -19.3500  -15.2360   34.9460 C   0  0  0  0  0  0  0  0  0  0  0  0
  -19.3970  -14.3730   36.1730 C   0  0  0  0  0  0  0  0  0  0  0  0
  -18.4220  -11.3190   34.6960 H   0  0  0  0  0  0  0  0  0  0  0  0
  -18.9250  -15.2330   32.7820 H   0  0  0  0  0  0  0  0  0  0  0  0
  -19.5870  -16.2380   35.0100 H   0  0  0  0  0  0  0  0  0  0  0  0
  -18.2200  -12.5890   32.2130 N   0  0  0  0  0 15  0  0  0  0  0  0
  -19.0130  -11.4530   31.6370 C   0  0  0  0  0  2  0  0  0  0  0  0
  -18.6210  -10.8580   30.3180 C   0  0  0  0  0  2  0  0  0  0  0  0
  -17.4360  -11.3990   29.5730 N   0  0  0  0  0  2  0  0  0  0  0  0
  -16.6440  -12.5350   30.1490 C   0  0  0  0  0  3  0  0  0  0  0  0
  -17.0360  -13.1300   31.4690 C   0  0  0  0  0  2  0  0  0  0  0  0
  -19.8580  -11.0670   32.1680 H   0  0  0  0  0  0  0  0  0  0  0  0
  -19.5780  -10.6430   31.2260 H   0  0  0  0  0  0  0  0  0  0  0  0
  -19.1860  -10.0480   29.9060 H   0  0  0  0  0  0  0  0  0  0  0  0
  -18.3410  -10.4330   29.3760 H   0  0  0  0  0  0  0  0  0  0  0  0
  -15.7990  -12.9210   29.6180 H   0  0  0  0  0  0  0  0  0  0  0  0
  -16.0780  -13.3450   30.5590 H   0  0  0  0  0  0  0  0  0  0  0  0
  -16.4700  -13.9400   31.8790 H   0  0  0  0  0  0  0  0  0  0  0  0
  -17.3150  -13.5550   32.4100 H   0  0  0  0  0  0  0  0  0  0  0  0
  -17.0440  -10.8040   28.2530 C   0  0  0  0  0  0  0  0  0  0  0  0
  -16.7640  -10.3800   27.3110 H   0  0  0  0  0  0  0  0  0  0  0  0
  -17.6870  -11.2930   26.9890 C   0  0  0  0  0  0  0  0  0  0  0  0
  -18.4250  -12.0670   27.0290 H   0  0  0  0  0  0  0  0  0  0  0  0
  -17.4070  -10.8690   26.0480 H   0  0  0  0  0  0  0  0  0  0  0  0
  -18.1450  -11.6420   26.0880 H   0  0  0  0  0  0  0  0  0  0  0  0
  -16.0090   -9.7200   28.1970 C   0  0  0  0  0  0  0  0  0  0  0  0
  -15.7290   -9.2950   27.2550 H   0  0  0  0  0  0  0  0  0  0  0  0
  -15.5510   -9.3710   29.0990 H   0  0  0  0  0  0  0  0  0  0  0  0
  -15.2700   -8.9460   28.1570 H   0  0  0  0  0  0  0  0  0  0  0  0
  -19.7890  -14.9680   37.4930 N   0  0  0  0  0  0  0  0  0  0  0  0
  -18.8300  -15.8560   38.2300 C   0  0  0  0  0  0  0  0  0  0  0  0
  -17.4800  -16.1480   37.6470 N   0  0  0  0  0  0  0  0  0  0  0  0
  -16.5210  -17.0360   38.3840 C   0  0  0  0  0  3  0  0  0  0  0  0
  -16.9130  -17.6300   39.7040 C   0  0  0  0  0  0  0  0  0  0  0  0
  -16.1840  -18.5350   40.6530 C   0  0  0  0  0  0  0  0  0  0  0  0
  -17.0840  -18.8010   41.8240 C   0  0  0  0  0  0  0  0  0  0  0  0
  -18.3690  -18.0620   41.5970 N   0  0  0  0  0  0  0  0  0  0  0  0
  -18.2630  -17.3380   40.2870 C   0  0  0  0  0  0  0  0  0  0  0  0
  -19.2220  -16.4500   39.5500 N   0  0  0  0  0  2  0  0  0  0  0  0
  -20.6750  -14.7760   37.8760 H   0  0  0  0  0  0  0  0  0  0  0  0
  -15.2300  -18.9090   40.5240 H   0  0  0  0  0  0  0  0  0  0  0  0
  -16.8590  -19.3900   42.6400 H   0  0  0  0  0  0  0  0  0  0  0  0
  -19.1460  -18.0520   42.2020 H   0  0  0  0  0  0  0  0  0  0  0  0
  -15.1700  -17.3290   37.8010 N   0  0  0  0  0  0  0  0  0  0  0  0
  -14.6640  -18.1160   38.1030 H   0  0  0  0  0  0  0  0  0  0  0  0
  -14.5900  -16.4200   36.7570 C   0  0  0  0  0  0  0  0  0  0  0  0
  -15.4830  -15.8010   35.7230 C   0  0  0  0  0  0  0  0  0  0  0  0
  -14.9030  -14.8930   34.6800 C   0  0  0  0  0  0  0  0  0  0  0  0
  -13.4320  -14.6030   34.6700 C   0  0  0  0  0  0  0  0  0  0  0  0
  -12.5400  -15.2220   35.7050 C   0  0  0  0  0  0  0  0  0  0  0  0
  -11.0670  -14.9320   35.6960 F   0  0  0  0  0  0  0  0  0  0  0  0
  -13.1190  -16.1300   36.7490 C   0  0  0  0  0  0  0  0  0  0  0  0
  -16.4960  -16.0000   35.7290 H   0  0  0  0  0  0  0  0  0  0  0  0
  -15.5170  -14.4660   33.9670 H   0  0  0  0  0  0  0  0  0  0  0  0
  -13.0330  -13.9780   33.9530 H   0  0  0  0  0  0  0  0  0  0  0  0
  -12.2260  -16.7490   37.7830 C   0  0  0  0  0  0  0  0  0  0  0  0
  -12.5860  -16.6570   39.2360 O   0  0  0  0  0  0  0  0  0  0  0  0
  -10.9740  -17.4600   37.3640 O   0  0  0  0  0  0  0  0  0  0  0  0
  -10.4160  -17.8470   38.0110 H   0  0  0  0  0  0  0  0  0  0  0  0
  -19.0990  -12.0550   37.3060 O   0  0  0  0  0  0  0  0  0  0  0  0
  -19.3430  -10.5800   37.1780 C   0  0  0  0  0  0  0  0  0  0  0  0
  -19.4830  -10.1430   36.2120 H   0  0  0  0  0  0  0  0  0  0  0  0
  -19.3760   -9.9650   38.0540 H   0  0  0  0  0  0  0  0  0  0  0  0
  -19.5170   -9.5280   37.0860 H   0  0  0  0  0  0  0  0  0  0  0  0
  1  6  1  0
  1 64  1  0
  2  1  2  0
  3  4  2  0
  3  2  1  0
  4  5  1  0
  5  9  1  0
  5  6  2  0
  6 34  1  0
  7  2  1  0
  8  4  1  0
 11 16  1  0
 13 14  1  0
 14 21  1  0
 15 22  1  0
 15 23  1  0
 17 11  1  0
 18 12  1  0
 19 12  1  0
 20 14  1  0
 24 13  1  0
 25 24  1  0
 26 27  1  0
 26 24  1  0
 28 26  1  0
 29 26  1  0
 30 24  1  0
 30 32  1  0
 31 30  1  0
 33 30  1  0
 34 44  1  0
 34 35  1  0
 35 43  1  0
 36 35  2  0
 36 37  1  0
 37 48  1  0
 37 38  1  0
 38 42  2  0
 38 39  1  0
 39 40  2  0
 40 46  1  0
 41 40  1  0
 41 47  1  0
 42 41  1  0
 43 42  1  0
 45 39  1  0
 48 49  1  0
 50 48  1  0
 51 57  1  0
 51 50  2  0
 52 51  1  0
 53 52  2  0
 53 54  1  0
 54 56  2  0
 55 54  1  0
 56 50  1  0
 56 60  1  0
 58 52  1  0
 59 53  1  0
 60 61  2  0
 62 60  1  0
 62 63  1  0
 65 64  1  0
 65 67  1  0
 66 65  1  0
 68 65  1  0
M  END
>  <minimizedAffinity>  (10) 
-8.53041077

$$$$

     RDKit          3D

 81 80  0  0  0  0  0  0  0  0999 V2000
  -19.1240  -13.4670   38.4480 C   0  0  0  0  0  0  0  0  0  0  0  0
  -18.6770  -13.2850   39.8680 C   0  0  0  0  0  0  0  0  0  0  0  0
  -18.2140  -14.4680   40.6660 C   0  0  0  0  0  0  0  0  0  0  0  0
  -18.1970  -15.8320   40.0430 C   0  0  0  0  0  0  0  0  0  0  0  0
  -18.6450  -16.0140   38.6230 C   0  0  0  0  0  0  0  0  0  0  0  0
  -19.1080  -14.8320   37.8250 C   0  0  0  0  0  0  0  0  0  0  0  0
  -18.6880  -12.3470   40.2960 H   0  0  0  0  0  0  0  0  0  0  0  0
  -17.9060  -14.3420   41.6430 H   0  0  0  0  0  0  0  0  0  0  0  0
  -18.6340  -16.9540   38.1950 H   0  0  0  0  0  0  0  0  0  0  0  0
  -19.4160  -14.9570   36.8480 H   0  0  0  0  0  0  0  0  0  0  0  0
  -19.7770  -11.0370   35.3790 N   0  0  0  0  0  0  0  0  0  0  0  0
  -19.3140  -12.2200   36.1770 C   0  0  0  0  0  0  0  0  0  0  0  0
  -18.5760  -13.3370   35.5010 O   0  0  0  0  0  0  0  0  0  0  0  0
  -19.5880  -12.2850   37.6500 N   0  0  0  0  0  0  0  0  0  0  0  0
  -20.2610  -10.3040   35.8220 H   0  0  0  0  0  0  0  0  0  0  0  0
  -20.0720  -11.5510   38.0930 H   0  0  0  0  0  0  0  0  0  0  0  0
  -18.9540  -10.8420   30.9590 C   0  0  0  0  0  0  0  0  0  0  0  0
  -19.2370  -12.1630   31.6120 C   0  0  0  0  0  0  0  0  0  0  0  0
  -19.5120  -12.2280   33.0850 C   0  0  0  0  0  0  0  0  0  0  0  0
  -19.5030  -10.9720   33.9060 C   0  0  0  0  0  0  0  0  0  0  0  0
  -19.2190   -9.6520   33.2530 C   0  0  0  0  0  0  0  0  0  0  0  0
  -18.9450   -9.5870   31.7800 C   0  0  0  0  0  0  0  0  0  0  0  0
  -19.2430  -13.0270   31.0470 H   0  0  0  0  0  0  0  0  0  0  0  0
  -19.7070  -13.1360   33.5340 H   0  0  0  0  0  0  0  0  0  0  0  0
  -19.2130   -8.7880   33.8180 H   0  0  0  0  0  0  0  0  0  0  0  0
  -18.7500   -8.6780   31.3310 H   0  0  0  0  0  0  0  0  0  0  0  0
  -14.5240   -9.8810   28.0090 N   0  0  0  0  0  1  0  0  0  0  0  0
  -15.6350  -10.1150   27.0280 C   0  0  0  0  0  2  0  0  0  0  0  0
  -17.0200  -10.4140   27.5200 C   0  0  0  0  0  2  0  0  0  0  0  0
  -17.2940  -10.4790   28.9940 N   0  0  0  0  0  0  0  0  0  0  0  0
  -18.6790  -10.7780   29.4860 C   0  0  0  0  0  0  0  0  0  0  0  0
  -19.7900  -11.0120   28.5050 O   0  0  0  0  0  0  0  0  0  0  0  0
  -16.1840  -10.2450   29.9740 C   0  0  0  0  0  0  0  0  0  0  0  0
  -14.7990   -9.9460   29.4820 C   0  0  0  0  0  2  0  0  0  0  0  0
  -15.4390  -10.0690   25.9770 H   0  0  0  0  0  0  0  0  0  0  0  0
  -16.4270  -10.2820   26.3280 H   0  0  0  0  0  0  0  0  0  0  0  0
  -17.8120  -10.5810   26.8200 H   0  0  0  0  0  0  0  0  0  0  0  0
  -18.0080  -10.6270   27.8720 H   0  0  0  0  0  0  0  0  0  0  0  0
  -16.3800  -10.2910   31.0260 H   0  0  0  0  0  0  0  0  0  0  0  0
  -15.3920  -10.0780   30.6740 H   0  0  0  0  0  0  0  0  0  0  0  0
  -14.0070   -9.7790   30.1820 H   0  0  0  0  0  0  0  0  0  0  0  0
  -13.8110   -9.7320   29.1310 H   0  0  0  0  0  0  0  0  0  0  0  0
  -13.1400   -9.5820   27.5160 C   0  0  0  0  0  0  0  0  0  0  0  0
  -12.9440   -9.5350   26.4650 H   0  0  0  0  0  0  0  0  0  0  0  0
  -12.3470   -9.4150   28.2160 H   0  0  0  0  0  0  0  0  0  0  0  0
  -12.1520   -9.3680   27.1650 H   0  0  0  0  0  0  0  0  0  0  0  0
  -17.7340  -17.0150   40.8410 N   0  0  0  0  0  0  0  0  0  0  0  0
  -16.3740  -17.5990   40.5960 C   0  0  0  0  0  0  0  0  0  0  0  0
  -16.2130  -19.0810   40.4300 C   0  0  0  0  0  0  0  0  0  0  0  0
  -14.8530  -19.6640   40.1850 C   0  0  0  0  0  0  0  0  0  0  0  0
  -13.6540  -18.7660   40.1060 N   0  0  0  0  0  0  0  0  0  0  0  0
  -13.8160  -17.2840   40.2720 C   0  0  0  0  0  0  0  0  0  0  0  0
  -12.6170  -16.3850   40.1930 N   0  0  0  0  0  0  0  0  0  0  0  0
  -15.1750  -16.7000   40.5170 N   0  0  0  0  0  0  0  0  0  0  0  0
  -17.0370  -19.6990   40.4840 H   0  0  0  0  0  0  0  0  0  0  0  0
  -14.7420  -20.6840   40.0700 H   0  0  0  0  0  0  0  0  0  0  0  0
  -12.7230  -15.4130   40.3010 H   0  0  0  0  0  0  0  0  0  0  0  0
  -11.2570  -16.9690   39.9470 C   0  0  0  0  0  0  0  0  0  0  0  0
  -10.1690  -16.1170   39.3640 C   0  0  0  0  0  0  0  0  0  0  0  0
   -8.8090  -16.7000   39.1180 C   0  0  0  0  0  0  0  0  0  0  0  0
   -8.5370  -18.1360   39.4570 C   0  0  0  0  0  0  0  0  0  0  0  0
   -9.6250  -18.9890   40.0400 C   0  0  0  0  0  0  0  0  0  0  0  0
  -10.9850  -18.4050   40.2850 C   0  0  0  0  0  0  0  0  0  0  0  0
  -10.3570  -15.1290   39.1310 H   0  0  0  0  0  0  0  0  0  0  0  0
   -8.0610  -16.1140   38.7170 H   0  0  0  0  0  0  0  0  0  0  0  0
   -9.4380  -19.9760   40.2730 H   0  0  0  0  0  0  0  0  0  0  0  0
  -11.7330  -18.9910   40.6870 H   0  0  0  0  0  0  0  0  0  0  0  0
   -7.1770  -18.7200   39.2110 C   0  0  0  0  0  0  0  0  0  0  0  0
   -6.3710  -18.4990   39.8800 H   0  0  0  0  0  0  0  0  0  0  0  0
   -6.2070  -19.1360   39.0370 H   0  0  0  0  0  0  0  0  0  0  0  0
   -6.9460  -19.6130   38.0280 S   0  0  1  0  0  0  0  0  0  0  0  0
   -7.3630  -20.8010   38.8440 O   0  0  0  0  0  0  0  0  0  0  0  0
   -6.5290  -18.4250   37.2130 O   0  0  0  0  0  0  0  0  0  0  0  0
   -6.7150  -20.5060   36.8450 C   0  0  0  0  0  0  0  0  0  0  0  0
   -6.8910  -21.5580   36.9270 H   0  0  0  0  0  0  0  0  0  0  0  0
   -6.3760  -20.0900   35.9200 H   0  0  0  0  0  0  0  0  0  0  0  0
   -6.5510  -21.1430   36.0020 H   0  0  0  0  0  0  0  0  0  0  0  0
  -18.6300  -17.6140   41.8840 C   0  0  0  0  0  0  0  0  0  0  0  0
  -19.6000  -17.1980   42.0590 H   0  0  0  0  0  0  0  0  0  0  0  0
  -18.2990  -18.4580   42.4540 H   0  0  0  0  0  0  0  0  0  0  0  0
  -19.2690  -18.0410   42.6280 H   0  0  0  0  0  0  0  0  0  0  0  0
  1  2  1  0
  2  7  1  0
  2  3  2  0
  3  8  1  0
  4  3  1  0
  4 47  1  0
  5  4  2  0
  6  1  2  0
  6  5  1  0
  9  5  1  0
 10  6  1  0
 11 15  1  0
 11 12  1  0
 12 14  1  0
 13 12  2  0
 14 16  1  0
 14  1  1  0
 17 18  2  0
 17 22  1  0
 18 19  1  0
 19 24  1  0
 19 20  2  0
 20 11  1  0
 21 25  1  0
 21 20  1  0
 22 21  2  0
 23 18  1  0
 26 22  1  0
 29 38  1  0
 30 31  1  0
 30 33  2  0
 31 17  1  0
 32 31  2  0
 33 40  1  0
 33 39  1  0
 34 41  1  0
 35 28  1  0
 36 28  1  0
 37 29  1  0
 42 34  1  0
 43 27  1  0
 43 45  1  0
 44 43  1  0
 46 43  1  0
 47 78  1  0
 48 47  1  0
 49 55  1  0
 49 48  1  0
 50 49  2  0
 51 50  1  0
 51 52  2  0
 52 54  1  0
 53 52  1  0
 53 57  1  0
 54 48  2  0
 56 50  1  0
 58 53  1  0
 58 63  1  0
 59 58  2  0
 60 59  1  0
 60 61  2  0
 61 62  1  0
 62 66  1  0
 62 63  2  0
 63 67  1  0
 64 59  1  0
 65 60  1  0
 68 61  1  0
 68 69  1  0
 70 68  1  0
 71 72  2  0
 71 68  1  0
 73 71  2  0
 74 75  1  0
 74 71  1  0
 76 74  1  0
 77 74  1  0
 78 79  1  0
 78 80  1  0
 78 81  1  0
M  END
>  <minimizedAffinity>  (11) 
22.9446316

$$$$

     RDKit          3D

 55 55  0  0  0  0  0  0  0  0999 V2000
  -15.6940  -12.5990   33.7100 N   0  0  0  0  0  2  0  0  0  0  0  0
  -14.4760  -13.4710   33.7610 C   0  0  0  0  0  0  0  0  0  0  0  0
  -13.5990  -13.6090   32.5520 N   0  0  0  0  0  0  0  0  0  0  0  0
  -12.3810  -14.4820   32.6040 C   0  0  0  0  0  3  0  0  0  0  0  0
  -12.0380  -15.2170   33.8650 C   0  0  0  0  0  0  0  0  0  0  0  0
  -12.9140  -15.0800   35.0750 C   0  0  0  0  0  0  0  0  0  0  0  0
  -14.1330  -14.2070   35.0230 N   0  0  0  0  0  0  0  0  0  0  0  0
  -16.2700  -12.5090   34.5040 H   0  0  0  0  0  0  0  0  0  0  0  0
  -11.7780  -14.5760   31.7710 H   0  0  0  0  0  0  0  0  0  0  0  0
  -11.1990  -15.8180   33.9010 H   0  0  0  0  0  0  0  0  0  0  0  0
  -12.5720  -15.8150   36.3360 C   0  0  0  0  0  0  0  0  0  0  0  0
  -13.5390  -16.2370   37.4020 C   0  0  0  0  0  0  0  0  0  0  0  0
  -12.7670  -16.9410   38.4780 N   0  0  0  0  0  0  0  0  0  0  0  0
  -11.3210  -16.9550   38.0770 N   0  0  0  0  0  0  0  0  0  0  0  0
  -10.0990  -17.5110   38.7460 C   0  0  0  0  0  0  0  0  0  0  0  0
   -8.7570  -17.3720   38.0920 C   0  0  0  0  0  0  0  0  0  0  0  0
   -8.6360  -16.6760   36.7680 C   0  0  0  0  0  0  0  0  0  0  0  0
   -9.8580  -16.1200   36.0990 C   0  0  0  0  0  0  0  0  0  0  0  0
  -11.2010  -16.2590   36.7530 C   0  0  0  0  0  0  0  0  0  0  0  0
  -10.1830  -17.9890   39.6570 H   0  0  0  0  0  0  0  0  0  0  0  0
   -7.7120  -16.5810   36.3180 H   0  0  0  0  0  0  0  0  0  0  0  0
   -9.7750  -15.6420   35.1880 H   0  0  0  0  0  0  0  0  0  0  0  0
  -15.0200  -15.9960   37.3940 C   0  0  0  0  0  0  0  0  0  0  0  0
  -15.8210  -16.2940   36.1610 C   0  0  0  0  0  0  0  0  0  0  0  0
  -17.3010  -16.0530   36.1520 C   0  0  0  0  0  0  0  0  0  0  0  0
  -17.9810  -15.5140   37.3760 C   0  0  0  0  0  0  0  0  0  0  0  0
  -19.4610  -15.2740   37.3680 F   0  0  0  0  0  0  0  0  0  0  0  0
  -17.1790  -15.2170   38.6090 C   0  0  0  0  0  0  0  0  0  0  0  0
  -15.6990  -15.4570   38.6180 C   0  0  0  0  0  0  0  0  0  0  0  0
  -15.3530  -16.6640   35.3180 H   0  0  0  0  0  0  0  0  0  0  0  0
  -17.8520  -16.2580   35.3040 H   0  0  0  0  0  0  0  0  0  0  0  0
  -17.6470  -14.8460   39.4510 H   0  0  0  0  0  0  0  0  0  0  0  0
  -15.1480  -15.2520   39.4660 H   0  0  0  0  0  0  0  0  0  0  0  0
   -7.5350  -17.9280   38.7610 C   0  0  0  0  0  0  0  0  0  0  0  0
   -6.3130  -18.4840   39.4300 F   0  0  0  0  0  0  0  0  0  0  0  0
   -6.9340  -16.5540   38.8050 F   0  0  0  0  0  0  0  0  0  0  0  0
   -8.1360  -19.3010   38.7170 F   0  0  0  0  0  0  0  0  0  0  0  0
  -16.0370  -11.8630   32.4480 C   0  0  0  0  0  2  0  0  0  0  0  0
  -15.4310  -11.0420   32.1260 H   0  0  0  0  0  0  0  0  0  0  0  0
  -15.1860  -11.5670   33.0260 H   0  0  0  0  0  0  0  0  0  0  0  0
  -17.2300  -12.2770   31.6390 C   0  0  0  0  0  2  0  0  0  0  0  0
  -18.2170  -12.0520   31.9860 H   0  0  0  0  0  0  0  0  0  0  0  0
  -17.3660  -11.7560   32.5640 H   0  0  0  0  0  0  0  0  0  0  0  0
  -17.0390  -13.0070   30.3420 C   0  0  0  0  0  3  0  0  0  0  0  0
  -16.3240  -13.8000   30.2750 H   0  0  0  0  0  0  0  0  0  0  0  0
  -16.4600  -13.2790   31.1990 H   0  0  0  0  0  0  0  0  0  0  0  0
  -17.8530  -12.6250   29.1410 N   0  0  0  0  0  0  0  0  0  0  0  0
  -17.4810  -11.4120   28.3400 C   0  0  0  0  0  0  0  0  0  0  0  0
  -16.6370  -10.8200   28.6260 H   0  0  0  0  0  0  0  0  0  0  0  0
  -18.0610  -11.1390   27.4830 H   0  0  0  0  0  0  0  0  0  0  0  0
  -17.2160  -10.5460   27.7680 H   0  0  0  0  0  0  0  0  0  0  0  0
  -19.0360  -13.4540   28.7410 C   0  0  0  0  0  0  0  0  0  0  0  0
  -19.6160  -13.1810   27.8840 H   0  0  0  0  0  0  0  0  0  0  0  0
  -19.3020  -14.3190   29.3120 H   0  0  0  0  0  0  0  0  0  0  0  0
  -19.8810  -14.0460   28.4560 H   0  0  0  0  0  0  0  0  0  0  0  0
  1  2  1  0
  1  8  1  0
  2  7  2  0
  3  4  1  0
  3  2  2  0
  4  5  1  0
  5 10  1  0
  5  6  2  0
  6 11  1  0
  7  6  1  0
  9  4  1  0
 11 19  2  0
 11 12  1  0
 12 13  2  0
 14 13  1  0
 14 15  1  0
 15 20  1  0
 16 15  2  0
 16 34  1  0
 17 16  1  0
 18 19  1  0
 18 17  2  0
 19 14  1  0
 21 17  1  0
 22 18  1  0
 23 12  1  0
 23 29  1  0
 24 23  2  0
 25 24  1  0
 25 26  2  0
 26 28  1  0
 27 26  1  0
 28 29  2  0
 28 32  1  0
 29 33  1  0
 30 24  1  0
 31 25  1  0
 34 36  1  0
 34 35  1  0
 37 34  1  0
 38 40  1  0
 39 38  1  0
 41 42  1  0
 41 43  1  0
 44 46  1  0
 45 44  1  0
 47 44  1  0
 48 49  1  0
 48 47  1  0
 50 48  1  0
 51 48  1  0
 52 47  1  0
 52 54  1  0
 53 52  1  0
 55 52  1  0
M  END
>  <minimizedAffinity>  (12) 
-11.04111

$$$$

     RDKit          3D

 46 45  0  0  0  0  0  0  0  0999 V2000
  -13.9810  -16.3510   37.1670 N   0  0  0  0  0 15  0  0  0  0  0  0
  -15.3670  -16.0180   36.7010 C   0  0  0  0  0  2  0  0  0  0  0  0
  -15.2550  -15.2880   35.3950 N   0  0  0  0  0  2  0  0  0  0  0  0
  -13.7980  -15.1710   35.0540 C   0  0  0  0  0  0  0  0  0  0  0  0
  -13.0870  -14.5510   33.8880 C   0  0  0  0  0  0  0  0  0  0  0  0
  -11.5900  -14.5880   33.8160 N   0  0  0  0  0  0  0  0  0  0  0  0
  -10.8020  -15.2440   34.9120 C   0  0  0  0  0  0  0  0  0  0  0  0
  -11.5130  -15.8640   36.0780 C   0  0  0  0  0  0  0  0  0  0  0  0
  -13.0110  -15.8280   36.1490 C   0  0  0  0  0  3  0  0  0  0  0  0
   -9.7720  -15.2690   34.8620 H   0  0  0  0  0  0  0  0  0  0  0  0
  -16.6420  -16.3550   37.4150 C   0  0  0  0  0  0  0  0  0  0  0  0
  -16.9160  -17.6140   38.1830 N   0  0  0  0  0  0  0  0  0  0  0  0
  -18.3110  -17.5290   38.7300 O   0  0  0  0  0  0  0  0  0  0  0  0
  -18.8980  -16.2170   38.3000 N   0  0  0  0  0  0  0  0  0  0  0  0
  -17.8670  -15.4910   37.4880 C   0  0  0  0  0  0  0  0  0  0  0  0
  -18.0310  -14.1400   36.8590 N   0  0  0  0  0  0  0  0  0  0  0  0
  -17.2930  -13.7440   36.3410 H   0  0  0  0  0  0  0  0  0  0  0  0
  -18.8770  -13.6480   36.9630 H   0  0  0  0  0  0  0  0  0  0  0  0
  -13.6260  -17.0790   38.4290 C   0  0  0  0  0  3  0  0  0  0  0  0
  -13.5920  -18.1490   38.4380 H   0  0  0  0  0  0  0  0  0  0  0  0
  -13.8450  -17.6290   37.5380 H   0  0  0  0  0  0  0  0  0  0  0  0
  -13.3190  -16.3100   39.6790 C   0  0  0  0  0  0  0  0  0  0  0  0
  -13.3530  -15.2400   39.6700 H   0  0  0  0  0  0  0  0  0  0  0  0
  -13.0660  -16.8290   40.5790 H   0  0  0  0  0  0  0  0  0  0  0  0
  -13.1000  -15.7600   40.5710 H   0  0  0  0  0  0  0  0  0  0  0  0
  -13.8740  -13.8950   32.7920 C   0  0  0  0  0  0  0  0  0  0  0  0
  -14.6610  -13.2380   31.6970 C   0  0  0  0  0  0  0  0  0  0  0  0
  -15.4490  -12.5810   30.6020 C   0  0  0  0  0  0  0  0  0  0  0  0
  -15.1890  -11.5960   30.2730 H   0  0  0  0  0  0  0  0  0  0  0  0
  -16.0100  -12.1130   29.8210 H   0  0  0  0  0  0  0  0  0  0  0  0
  -16.5990  -13.3050   29.9670 N   0  0  0  0  0  0  0  0  0  0  0  0
  -17.1340  -12.8590   29.2230 H   0  0  0  0  0  0  0  0  0  0  0  0
  -16.8460  -14.2440   30.2810 H   0  0  0  0  0  0  0  0  0  0  0  0
  -10.7260  -16.5210   37.1730 O   0  0  0  0  0  0  0  0  0  0  0  0
   -9.2520  -16.2720   37.2900 C   0  0  0  0  0  0  0  0  0  0  0  0
   -8.7090  -15.8730   36.4580 H   0  0  0  0  0  0  0  0  0  0  0  0
   -8.1990  -16.0950   37.3730 H   0  0  0  0  0  0  0  0  0  0  0  0
   -8.5380  -16.5830   38.5720 C   0  0  0  0  0  0  0  0  0  0  0  0
   -8.5160  -15.8600   39.3610 H   0  0  0  0  0  0  0  0  0  0  0  0
   -8.0280  -16.8040   39.4860 H   0  0  0  0  0  0  0  0  0  0  0  0
   -7.8540  -17.9060   38.7480 C   0  0  0  0  0  0  0  0  0  0  0  0
   -6.8750  -18.0610   38.3460 H   0  0  0  0  0  0  0  0  0  0  0  0
   -7.3670  -18.8510   38.8740 H   0  0  0  0  0  0  0  0  0  0  0  0
   -8.5440  -19.0140   39.4880 N   0  0  0  0  0  0  0  0  0  0  0  0
   -8.0800  -19.9140   39.6080 H   0  0  0  0  0  0  0  0  0  0  0  0
   -9.4780  -18.8670   39.8720 H   0  0  0  0  0  0  0  0  0  0  0  0
  2 11  1  0
  3  2  1  0
  4  3  1  0
  4  9  1  0
  5  4  2  0
  6  5  1  0
  6  7  2  0
  7  8  1  0
  8  9  2  0
  8 34  1  0
 10  7  1  0
 11 15  1  0
 11 12  2  0
 12 13  1  0
 14 13  1  0
 15 14  2  0
 16 18  1  0
 16 15  1  0
 17 16  1  0
 19 20  1  0
 19 22  1  0
 21 19  1  0
 22 25  1  0
 22 24  1  0
 23 22  1  0
 26  5  1  0
 27 26  3  0
 28 27  1  0
 29 28  1  0
 30 28  1  0
 31 33  1  0
 31 28  1  0
 32 31  1  0
 34 35  1  0
 35 37  1  0
 35 38  1  0
 36 35  1  0
 38 41  1  0
 38 39  1  0
 38 40  1  0
 41 43  1  0
 41 44  1  0
 42 41  1  0
 44 45  1  0
 44 46  1  0
M  END
>  <minimizedAffinity>  (13) 
-10.5507336

$$$$

     RDKit          3D

 48 51  0  0  0  0  0  0  0  0999 V2000
  -14.6630  -14.9840   34.8840 C   0  0  0  0  0  0  0  0  0  0  0  0
  -13.4800  -14.3430   34.2220 C   0  0  0  0  0  0  0  0  0  0  0  0
  -12.0910  -14.6780   34.6800 C   0  0  0  0  0  0  0  0  0  0  0  0
  -11.8860  -15.6540   35.8000 C   0  0  0  0  0  0  0  0  0  0  0  0
  -13.0700  -16.2950   36.4630 C   0  0  0  0  0  0  0  0  0  0  0  0
  -12.8650  -17.2710   37.5830 Cl  0  0  0  0  0  0  0  0  0  0  0  0
  -14.4580  -15.9600   36.0040 C   0  0  0  0  0  0  0  0  0  0  0  0
  -13.6210  -13.6720   33.4510 H   0  0  0  0  0  0  0  0  0  0  0  0
  -11.2770  -14.2370   34.2240 H   0  0  0  0  0  0  0  0  0  0  0  0
  -15.2730  -16.4010   36.4600 H   0  0  0  0  0  0  0  0  0  0  0  0
  -18.6140  -14.6130   34.8510 C   0  0  0  0  0  0  0  0  0  0  0  0
  -19.7890  -14.9130   35.7350 C   0  0  0  0  0  0  0  0  0  0  0  0
  -19.5740  -15.5470   37.0780 N   0  0  0  0  0  0  0  0  0  0  0  0
  -18.1860  -15.8820   37.5360 C   0  0  0  0  0  0  0  0  0  0  0  0
  -17.0120  -15.5830   36.6520 N   0  0  0  0  0  0  0  0  0  0  0  0
  -17.2260  -14.9480   35.3100 C   0  0  0  0  0  0  0  0  0  0  0  0
  -16.0520  -14.6490   34.4260 N   0  0  0  0  0  0  0  0  0  0  0  0
  -20.7440  -14.6820   35.4200 H   0  0  0  0  0  0  0  0  0  0  0  0
  -18.0390  -16.3180   38.4600 H   0  0  0  0  0  0  0  0  0  0  0  0
  -16.1920  -14.2330   33.5450 H   0  0  0  0  0  0  0  0  0  0  0  0
  -19.0430  -13.3450   32.1670 C   0  0  0  0  0  0  0  0  0  0  0  0
  -18.8290  -13.9790   33.5090 C   0  0  0  0  0  0  0  0  0  0  0  0
  -19.2550  -13.7320   26.9890 N   0  0  0  0  0  0  0  0  0  0  0  0
  -19.3630  -12.9040   28.2360 C   0  0  0  0  0  0  0  0  0  0  0  0
  -19.6850  -11.4420   28.1400 N   0  0  0  0  0  0  0  0  0  0  0  0
  -19.7930  -10.6150   29.3860 C   0  0  0  0  0  0  0  0  0  0  0  0
  -19.5790  -11.2490   30.7280 C   0  0  0  0  0  0  0  0  0  0  0  0
  -19.2570  -12.7110   30.8240 C   0  0  0  0  0  0  0  0  0  0  0  0
  -19.1490  -13.5380   29.5780 N   0  0  0  0  0  0  0  0  0  0  0  0
  -19.3960  -13.3150   26.1080 H   0  0  0  0  0  0  0  0  0  0  0  0
  -19.0430  -14.6910   27.0530 H   0  0  0  0  0  0  0  0  0  0  0  0
  -20.0150   -9.6090   29.3200 H   0  0  0  0  0  0  0  0  0  0  0  0
  -19.6530  -10.6800   31.5860 H   0  0  0  0  0  0  0  0  0  0  0  0
  -10.4980  -15.9890   36.2590 O   0  0  0  0  0  0  0  0  0  0  0  0
  -10.2050  -16.1320   37.7230 C   0  0  0  0  0  0  0  0  0  0  0  0
  -10.8770  -15.7170   38.4460 H   0  0  0  0  0  0  0  0  0  0  0  0
   -9.9970  -16.2340   38.7680 H   0  0  0  0  0  0  0  0  0  0  0  0
   -8.9720  -16.8560   38.1740 C   0  0  0  0  0  0  0  0  0  0  0  0
   -7.7410  -16.0830   38.5440 C   0  0  0  0  0  0  0  0  0  0  0  0
   -6.5080  -16.8070   38.9960 C   0  0  0  0  0  0  0  0  0  0  0  0
   -6.5050  -18.3050   39.0770 C   0  0  0  0  0  0  0  0  0  0  0  0
   -7.7350  -19.0780   38.7060 C   0  0  0  0  0  0  0  0  0  0  0  0
   -7.7320  -20.5760   38.7870 F   0  0  0  0  0  0  0  0  0  0  0  0
   -8.9690  -18.3540   38.2550 C   0  0  0  0  0  0  0  0  0  0  0  0
   -7.7430  -15.0520   38.4890 H   0  0  0  0  0  0  0  0  0  0  0  0
   -5.6610  -16.2750   39.2500 H   0  0  0  0  0  0  0  0  0  0  0  0
   -5.6560  -18.8030   39.3870 H   0  0  0  0  0  0  0  0  0  0  0  0
   -9.8160  -18.8870   38.0000 H   0  0  0  0  0  0  0  0  0  0  0  0
  1  7  1  0
  2  3  1  0
  2  1  2  0
  3  4  2  0
  4 34  1  0
  4  5  1  0
  5  6  1  0
  7 10  1  0
  7  5  2  0
  8  2  1  0
  9  3  1  0
 11 16  1  0
 11 12  2  0
 12 13  1  0
 13 14  2  0
 14 19  1  0
 15 14  1  0
 16 15  2  0
 17  1  1  0
 17 16  1  0
 18 12  1  0
 20 17  1  0
 21 22  3  0
 22 11  1  0
 23 31  1  0
 23 24  1  0
 24 29  1  0
 25 24  2  0
 25 26  1  0
 26 27  2  0
 27 28  1  0
 27 33  1  0
 28 21  1  0
 29 28  2  0
 30 23  1  0
 32 26  1  0
 34 35  1  0
 35 38  1  0
 35 36  1  0
 35 37  1  0
 38 44  2  0
 38 39  1  0
 39 40  2  0
 40 41  1  0
 40 46  1  0
 41 47  1  0
 42 43  1  0
 42 41  2  0
 44 42  1  0
 45 39  1  0
 48 44  1  0
M  END
>  <minimizedAffinity>  (14) 
-9.25131035

$$$$

     RDKit          3D

 46 49  0  0  1  0  0  0  0  0999 V2000
  -13.4630  -14.0830   32.2940 N   0  0  0  0  0  0  0  0  0  0  0  0
  -13.6590  -14.6240   33.6790 C   0  0  0  0  0  3  0  0  0  0  0  0
  -15.0410  -14.7280   34.2550 N   0  0  0  0  0  0  0  0  0  0  0  0
  -15.2370  -15.2680   35.6400 C   0  0  0  0  0  0  0  0  0  0  0  0
  -14.0530  -15.7050   36.4500 N   0  0  0  0  0  2  0  0  0  0  0  0
  -12.6710  -15.6020   35.8740 C   0  0  0  0  0  0  0  0  0  0  0  0
  -12.4750  -15.0610   34.4890 C   0  0  0  0  0  0  0  0  0  0  0  0
  -11.0050  -15.0770   34.1900 C   0  0  0  0  0  0  0  0  0  0  0  0
  -10.2930  -15.6280   35.3890 N   0  0  0  0  0  0  0  0  0  0  0  0
  -11.3230  -15.9520   36.4310 N   0  0  0  0  0  0  0  0  0  0  0  0
  -12.5560  -14.0150   31.9160 H   0  0  0  0  0  0  0  0  0  0  0  0
  -16.1880  -15.3400   36.0360 H   0  0  0  0  0  0  0  0  0  0  0  0
  -10.5620  -14.7640   33.3120 H   0  0  0  0  0  0  0  0  0  0  0  0
  -15.0550  -12.2020   31.4710 C   0  0  0  0  0  0  0  0  0  0  0  0
  -14.6470  -13.6460   31.4850 N   0  0  0  0  0  0  0  0  0  0  0  0
  -14.5200  -11.5100   32.0180 H   0  0  0  0  0  0  0  0  0  0  0  0
  -18.3540  -12.3510   29.2700 C   0  0  0  0  0  0  0  0  0  0  0  0
  -17.1690  -12.7890   30.0800 C   0  0  0  0  0  0  0  0  0  0  0  0
  -16.2390  -11.7650   30.6610 C   0  0  0  0  0  0  0  0  0  0  0  0
  -16.4940  -10.3050   30.4320 C   0  0  0  0  0  0  0  0  0  0  0  0
  -17.6790   -9.8680   29.6230 C   0  0  0  0  0  0  0  0  0  0  0  0
  -18.6090  -10.8910   29.0410 C   0  0  0  0  0  0  0  0  0  0  0  0
  -16.9940  -13.7940   30.2370 H   0  0  0  0  0  0  0  0  0  0  0  0
  -15.8540   -9.6010   30.8320 H   0  0  0  0  0  0  0  0  0  0  0  0
  -17.8540   -8.8630   29.4650 H   0  0  0  0  0  0  0  0  0  0  0  0
  -19.7930  -10.4540   28.2320 O   0  0  0  0  0  0  0  0  0  0  0  0
  -20.3750  -11.0940   27.8680 H   0  0  0  0  0  0  0  0  0  0  0  0
  -19.2840  -13.3750   28.6890 O   0  0  0  0  0  0  0  0  0  0  0  0
  -19.1150  -13.8190   27.2660 C   0  0  0  0  0  0  0  0  0  0  0  0
  -18.3320  -13.4070   26.6660 H   0  0  0  0  0  0  0  0  0  0  0  0
  -19.7790  -14.5500   26.8510 H   0  0  0  0  0  0  0  0  0  0  0  0
  -18.9950  -14.1370   26.2510 H   0  0  0  0  0  0  0  0  0  0  0  0
  -11.0530  -16.5260   37.7900 C   0  0  0  0  0  0  0  0  0  0  0  0
  -11.8260  -16.5370   38.5290 H   0  0  0  0  0  0  0  0  0  0  0  0
  -10.8600  -16.9350   38.7600 H   0  0  0  0  0  0  0  0  0  0  0  0
   -9.6980  -17.0840   38.1120 C   0  0  0  0  0  0  0  0  0  0  0  0
   -9.4520  -18.5610   38.0080 C   0  0  0  0  0  0  0  0  0  0  0  0
   -8.0970  -19.1190   38.3300 C   0  0  0  0  0  0  0  0  0  0  0  0
   -6.9890  -18.2030   38.7550 C   0  0  0  0  0  0  0  0  0  0  0  0
   -7.2360  -16.7270   38.8580 C   0  0  0  0  0  0  0  0  0  0  0  0
   -8.5900  -16.1670   38.5360 C   0  0  0  0  0  0  0  0  0  0  0  0
  -10.2140  -19.1920   37.7160 H   0  0  0  0  0  0  0  0  0  0  0  0
   -7.9280  -20.1350   38.2590 H   0  0  0  0  0  0  0  0  0  0  0  0
   -6.0580  -18.5870   38.9760 H   0  0  0  0  0  0  0  0  0  0  0  0
   -6.4730  -16.0960   39.1500 H   0  0  0  0  0  0  0  0  0  0  0  0
   -8.7600  -15.1520   38.6070 H   0  0  0  0  0  0  0  0  0  0  0  0
  2  1  1  0
  2  3  1  0
  2  7  1  0
  3  4  2  0
  4 12  1  0
  4  5  1  0
  6 10  1  0
  6  5  1  0
  7  6  2  0
  8  7  1  0
  8  9  2  0
  9 10  1  0
 10 33  1  0
 11  1  1  0
 13  8  1  0
 14 15  2  0
 14 16  1  0
 15  1  1  0
 17 18  1  0
 18 23  1  0
 18 19  2  0
 19 14  1  0
 20 19  1  0
 20 24  1  0
 21 20  2  0
 22 17  2  0
 22 21  1  0
 25 21  1  0
 26 22  1  0
 27 26  1  0
 28 17  1  0
 29 28  1  0
 30 29  1  0
 31 29  1  0
 32 29  1  0
 33 36  1  0
 33 34  1  0
 33 35  1  0
 36 41  1  0
 37 36  2  0
 37 38  1  0
 38 39  2  0
 39 40  1  0
 39 44  1  0
 40 45  1  0
 41 46  1  0
 41 40  2  0
 42 37  1  0
 43 38  1  0
M  END
>  <minimizedAffinity>  (15) 
-8.69130611

$$$$

     RDKit          3D

 71 68  0  0  1  0  0  0  0  0999 V2000
  -15.3740  -11.5230   32.0040 C   0  0  0  0  0  2  0  0  0  0  0  0
  -16.6000  -10.7820   32.4480 C   0  0  0  0  0  1  0  0  0  0  0  0
  -17.5490  -11.4160   33.4210 C   0  0  0  0  0  1  0  0  0  0  0  0
  -17.2720  -12.7920   33.9500 C   0  0  0  0  0  0  0  0  0  0  0  0
  -16.0460  -13.5340   33.5060 C   0  0  0  0  0  0  0  0  0  0  0  0
  -15.0970  -12.8990   32.5330 C   0  0  0  0  0  0  0  0  0  0  0  0
  -18.2210  -13.4270   34.9240 N   0  0  0  0  0  0  0  0  0  0  0  0
  -17.9440  -14.8030   35.4530 C   0  0  0  0  0  0  0  0  0  0  0  0
  -16.7180  -15.5440   35.0080 O   0  0  0  0  0  0  0  0  0  0  0  0
  -19.4470  -12.6850   35.3680 C   0  0  0  0  0  3  0  0  0  0  0  0
  -19.7240  -11.3090   34.8390 C   0  0  0  0  0  1  0  0  0  0  0  0
  -18.7750  -10.6750   33.8660 C   0  0  0  0  0 15  0  0  0  0  0  0
  -16.7910   -9.8350   32.0840 H   0  0  0  0  0  0  0  0  0  0  0  0
  -15.8550  -14.4810   33.8700 H   0  0  0  0  0  0  0  0  0  0  0  0
  -20.1230  -13.1380   36.0620 H   0  0  0  0  0  0  0  0  0  0  0  0
  -20.3210  -12.1560   35.6850 H   0  0  0  0  0  0  0  0  0  0  0  0
  -20.5980  -10.7800   35.1560 H   0  0  0  0  0  0  0  0  0  0  0  0
  -19.9220  -10.3280   34.4610 H   0  0  0  0  0  0  0  0  0  0  0  0
  -13.8710  -13.6410   32.0890 N   0  0  0  0  0  4  0  0  0  0  0  0
  -13.0050  -14.3320   33.1000 C   0  0  0  0  0  0  0  0  0  0  0  0
  -13.3650  -14.2820   34.5550 N   0  0  0  0  0  0  0  0  0  0  0  0
  -12.5000  -14.9740   35.5660 C   0  0  0  0  0  3  0  0  0  0  0  0
  -11.2740  -15.7150   35.1220 C   0  0  0  0  0  0  0  0  0  0  0  0
  -10.2360  -16.4860   35.8830 C   0  0  0  0  0  0  0  0  0  0  0  0
   -9.2350  -17.0130   34.8970 C   0  0  0  0  0  0  0  0  0  0  0  0
   -9.6540  -16.5680   33.5280 N   0  0  0  0  0  0  0  0  0  0  0  0
  -10.9140  -15.7650   33.6670 C   0  0  0  0  0  0  0  0  0  0  0  0
  -11.7800  -15.0740   32.6560 N   0  0  0  0  0  2  0  0  0  0  0  0
  -13.6350  -13.6740   31.1330 H   0  0  0  0  0  0  0  0  0  0  0  0
  -10.2160  -16.6290   36.9050 H   0  0  0  0  0  0  0  0  0  0  0  0
   -8.4040  -17.5830   35.1230 H   0  0  0  0  0  0  0  0  0  0  0  0
   -9.1840  -16.7670   32.6860 H   0  0  0  0  0  0  0  0  0  0  0  0
  -12.8600  -14.9240   37.0210 N   0  0  0  0  0  0  0  0  0  0  0  0
  -12.6310  -14.1300   37.5580 H   0  0  0  0  0  0  0  0  0  0  0  0
  -13.5680  -16.0820   37.6590 C   0  0  0  0  0  0  0  0  0  0  0  0
  -14.7110  -16.8520   37.0660 C   0  0  0  0  0  0  0  0  0  0  0  0
  -15.1060  -17.9190   38.0420 C   0  0  0  0  0  0  0  0  0  0  0  0
  -14.2080  -17.8090   39.2390 S   0  0  0  0  0  0  0  0  0  0  0  0
  -13.2570  -16.6740   39.0020 C   0  0  0  0  0  0  0  0  0  0  0  0
  -15.1470  -16.6770   36.1470 H   0  0  0  0  0  0  0  0  0  0  0  0
  -15.8640  -18.6090   37.9130 H   0  0  0  0  0  0  0  0  0  0  0  0
  -12.1850  -16.2110   39.9430 C   0  0  0  0  0  0  0  0  0  0  0  0
  -12.5570  -15.5800   41.2520 N   0  0  0  0  0  0  0  0  0  0  0  0
  -10.7400  -16.3800   39.5750 O   0  0  0  0  0  0  0  0  0  0  0  0
  -11.8530  -15.2760   41.8690 H   0  0  0  0  0  0  0  0  0  0  0  0
  -13.5050  -15.4690   41.4930 H   0  0  0  0  0  0  0  0  0  0  0  0
  -18.1800   -9.6600   32.9340 C   0  0  0  0  0  3  0  0  0  0  0  0
  -18.6720   -8.7230   32.7800 H   0  0  0  0  0  0  0  0  0  0  0  0
  -17.2640   -9.8750   32.4250 H   0  0  0  0  0  0  0  0  0  0  0  0
  -17.7560   -8.9370   32.2700 H   0  0  0  0  0  0  0  0  0  0  0  0
  -19.7940   -9.5810   33.9860 C   0  0  0  0  0  0  0  0  0  0  0  0
  -20.6420   -9.7080   34.6270 H   0  0  0  0  0  0  0  0  0  0  0  0
  -19.6740   -8.6740   33.4320 H   0  0  0  0  0  0  0  0  0  0  0  0
  -20.5210   -8.8010   34.0720 H   0  0  0  0  0  0  0  0  0  0  0  0
  -18.8920  -15.4370   36.4260 C   0  0  0  0  0  0  0  0  0  0  0  0
  -19.7700  -15.9360   36.0700 H   0  0  0  0  0  0  0  0  0  0  0  0
  -19.5690  -15.8900   37.1200 H   0  0  0  0  0  0  0  0  0  0  0  0
  -18.6110  -15.3730   37.8980 N   0  0  0  0  0  0  0  0  0  0  0  0
  -18.6780  -14.0590   38.6180 C   0  0  0  0  0  0  0  0  0  0  0  0
  -18.4780  -14.0130   39.6680 H   0  0  0  0  0  0  0  0  0  0  0  0
  -18.9270  -13.1670   38.0810 H   0  0  0  0  0  0  0  0  0  0  0  0
  -18.7260  -13.1210   39.1310 H   0  0  0  0  0  0  0  0  0  0  0  0
  -18.2630  -16.6230   38.6500 C   0  0  0  0  0  0  0  0  0  0  0  0
  -18.2150  -17.5610   38.1370 H   0  0  0  0  0  0  0  0  0  0  0  0
  -18.0620  -16.5780   39.7000 H   0  0  0  0  0  0  0  0  0  0  0  0
  -18.0140  -17.5150   39.1870 H   0  0  0  0  0  0  0  0  0  0  0  0
  -14.4250  -10.8890   31.0310 O   0  0  0  0  0  0  0  0  0  0  0  0
  -14.7900   -9.5970   30.3610 C   0  0  0  0  0  0  0  0  0  0  0  0
  -15.7280   -9.1280   30.5780 H   0  0  0  0  0  0  0  0  0  0  0  0
  -14.1140   -9.1450   29.6670 H   0  0  0  0  0  0  0  0  0  0  0  0
  -15.0510   -8.6760   29.8830 H   0  0  0  0  0  0  0  0  0  0  0  0
  1  6  1  0
  3  4  1  0
  4  7  1  0
  5 14  1  0
  5  4  2  0
  6  5  1  0
  7 10  1  0
  7  8  1  0
  8 55  1  0
  9  8  2  0
 10 16  1  0
 10 15  1  0
 11 17  1  0
 13  2  1  0
 19  6  2  0
 19 20  1  0
 20 21  2  0
 21 22  1  0
 22 33  1  0
 23 22  1  0
 23 24  1  0
 24 30  1  0
 25 31  1  0
 25 24  2  0
 26 27  1  0
 26 25  1  0
 27 23  2  0
 28 20  1  0
 28 27  1  0
 29 19  1  0
 32 26  1  0
 33 34  1  0
 33 35  1  0
 35 39  2  0
 36 35  1  0
 36 37  2  0
 37 38  1  0
 39 38  1  0
 39 42  1  0
 40 36  1  0
 41 37  1  0
 42 43  1  0
 43 46  1  0
 43 45  1  0
 44 42  2  0
 48 47  1  0
 49 47  1  0
 50 47  1  0
 51 54  1  0
 51 18  1  0
 51 52  1  0
 53 51  1  0
 55 57  1  0
 55 58  1  0
 56 55  1  0
 58 59  1  0
 58 63  1  0
 59 62  1  0
 59 60  1  0
 61 59  1  0
 63 66  1  0
 63 65  1  0
 64 63  1  0
 67  1  1  0
 68 69  1  0
 68 67  1  0
 70 68  1  0
 71 68  1  0
M  END
>  <minimizedAffinity>  (16) 
-8.23578644

$$$$

     RDKit          3D

 38 40  0  0  1  0  0  0  0  0999 V2000
  -18.5580  -14.4370   34.9320 C   0  0  0  0  0  0  0  0  0  0  0  0
  -18.9090  -15.1840   36.1850 C   0  0  0  0  0  0  0  0  0  0  0  0
  -17.8460  -15.9290   36.9370 C   0  0  0  0  0  0  0  0  0  0  0  0
  -16.4330  -15.9280   36.4350 C   0  0  0  0  0  0  0  0  0  0  0  0
  -16.0810  -15.1830   35.1830 C   0  0  0  0  0  0  0  0  0  0  0  0
  -17.1440  -14.4370   34.4300 C   0  0  0  0  0  0  0  0  0  0  0  0
  -19.8820  -15.1840   36.5300 H   0  0  0  0  0  0  0  0  0  0  0  0
  -18.0880  -16.4420   37.7980 H   0  0  0  0  0  0  0  0  0  0  0  0
  -15.1080  -15.1820   34.8370 H   0  0  0  0  0  0  0  0  0  0  0  0
  -16.9030  -13.9240   33.5680 H   0  0  0  0  0  0  0  0  0  0  0  0
  -19.6200  -13.6920   34.1800 N   0  0  0  0  0  0  0  0  0  0  0  0
  -20.3700  -13.2810   34.6650 H   0  0  0  0  0  0  0  0  0  0  0  0
  -19.5380  -13.5730   32.6860 S   0  0  2  0  0  0  0  0  0  0  0  0
  -19.2820  -12.1010   32.8170 O   0  0  0  0  0  0  0  0  0  0  0  0
  -19.7930  -15.0460   32.5550 O   0  0  0  0  0  0  0  0  0  0  0  0
  -19.4550  -13.4550   31.1930 C   0  0  0  0  0  0  0  0  0  0  0  0
  -19.2680  -12.5030   30.7410 H   0  0  0  0  0  0  0  0  0  0  0  0
  -19.5840  -14.3220   30.5800 H   0  0  0  0  0  0  0  0  0  0  0  0
  -19.3970  -13.3700   30.1280 H   0  0  0  0  0  0  0  0  0  0  0  0
  -15.3700  -16.6740   37.1870 N   0  0  0  0  0  4  0  0  0  0  0  0
  -15.6190  -17.2620   37.9380 H   0  0  0  0  0  0  0  0  0  0  0  0
  -13.9300  -16.5250   36.7970 C   0  0  0  0  0  0  0  0  0  0  0  0
  -12.8610  -16.5580   37.8480 C   0  0  0  0  0  3  0  0  0  0  0  0
  -13.0780  -16.7320   39.3220 C   0  0  0  0  0  0  0  0  0  0  0  0
  -14.4030  -16.9040   40.0030 O   0  0  0  0  0  0  0  0  0  0  0  0
  -11.7380  -16.7050   39.9960 N   0  0  0  0  0  0  0  0  0  0  0  0
  -10.6920  -16.5130   38.9380 C   0  0  0  0  0  0  0  0  0  0  0  0
   -9.1970  -16.4090   39.0110 C   0  0  0  0  0  0  0  0  0  0  0  0
   -8.3970  -16.2150   37.7580 C   0  0  0  0  0  0  0  0  0  0  0  0
   -9.0900  -16.1240   36.4310 C   0  0  0  0  0  0  0  0  0  0  0  0
  -10.5850  -16.2280   36.3580 C   0  0  0  0  0  0  0  0  0  0  0  0
  -11.3860  -16.4220   37.6110 C   0  0  0  0  0  0  0  0  0  0  0  0
  -13.6750  -16.3990   35.8050 H   0  0  0  0  0  0  0  0  0  0  0  0
  -11.5740  -16.7960   40.9620 H   0  0  0  0  0  0  0  0  0  0  0  0
   -8.7200  -16.4720   39.9240 H   0  0  0  0  0  0  0  0  0  0  0  0
   -7.3680  -16.1430   37.8090 H   0  0  0  0  0  0  0  0  0  0  0  0
   -8.5390  -15.9900   35.5690 H   0  0  0  0  0  0  0  0  0  0  0  0
  -11.0620  -16.1650   35.4450 H   0  0  0  0  0  0  0  0  0  0  0  0
  1  2  1  0
  2  7  1  0
  2  3  2  0
  3  8  1  0
  4  3  1  0
  4 20  1  0
  5  4  2  0
  6  1  2  0
  6  5  1  0
  9  5  1  0
 10  6  1  0
 11 12  1  0
 11  1  1  0
 13 14  2  0
 13 11  1  0
 15 13  2  0
 16 13  1  0
 17 16  1  0
 18 16  1  0
 19 16  1  0
 20 21  1  0
 22 20  2  0
 23 22  1  0
 23 24  1  0
 24 26  1  0
 24 25  2  0
 26 34  1  0
 27 28  1  0
 27 26  1  0
 28 35  1  0
 29 36  1  0
 29 28  2  0
 30 29  1  0
 31 30  2  0
 31 32  1  0
 32 23  1  0
 32 27  2  0
 33 22  1  0
 37 30  1  0
 38 31  1  0
M  END
>  <minimizedAffinity>  (17) 
-7.82102585

$$$$

     RDKit          3D

 41 44  0  0  0  0  0  0  0  0999 V2000
  -11.0720  -15.0310   34.5930 N   0  0  0  0  0  0  0  0  0  0  0  0
  -10.6370  -15.8430   35.7760 C   0  0  0  0  0  0  0  0  0  0  0  0
   -9.1860  -16.1780   35.9630 N   0  0  0  0  0  0  0  0  0  0  0  0
   -8.7500  -16.9910   37.1460 C   0  0  0  0  0  0  0  0  0  0  0  0
   -9.7650  -17.4680   38.1430 C   0  0  0  0  0  0  0  0  0  0  0  0
  -11.2150  -17.1320   37.9560 C   0  0  0  0  0  0  0  0  0  0  0  0
  -12.2290  -17.6100   38.9530 N   0  0  0  0  0  0  0  0  0  0  0  0
  -11.6510  -16.3200   36.7730 N   0  0  0  0  0  0  0  0  0  0  0  0
  -10.4060  -14.7170   33.9380 H   0  0  0  0  0  0  0  0  0  0  0  0
   -7.7530  -17.2210   37.2740 H   0  0  0  0  0  0  0  0  0  0  0  0
   -9.4660  -18.0270   38.9570 H   0  0  0  0  0  0  0  0  0  0  0  0
  -11.9440  -18.1430   39.7300 H   0  0  0  0  0  0  0  0  0  0  0  0
  -13.6800  -17.2740   38.7660 C   0  0  0  0  0  0  0  0  0  0  0  0
  -14.4370  -17.8410   37.6020 C   0  0  0  0  0  0  0  0  0  0  0  0
  -15.8860  -17.5060   37.4160 C   0  0  0  0  0  0  0  0  0  0  0  0
  -16.5790  -16.6030   38.3930 C   0  0  0  0  0  0  0  0  0  0  0  0
  -15.8220  -16.0350   39.5560 C   0  0  0  0  0  0  0  0  0  0  0  0
  -16.2340  -15.1240   40.6740 N   0  0  0  0  0  0  0  0  0  0  0  0
  -15.0390  -14.8960   41.5520 N   0  0  0  0  0  0  0  0  0  0  0  0
  -13.8890  -15.6670   40.9760 C   0  0  0  0  0  0  0  0  0  0  0  0
  -14.3720  -16.3710   39.7430 C   0  0  0  0  0  0  0  0  0  0  0  0
  -13.9600  -18.4630   36.9310 H   0  0  0  0  0  0  0  0  0  0  0  0
  -16.4080  -17.8960   36.6150 H   0  0  0  0  0  0  0  0  0  0  0  0
  -17.5780  -16.3720   38.2640 H   0  0  0  0  0  0  0  0  0  0  0  0
  -17.1320  -14.7420   40.8090 H   0  0  0  0  0  0  0  0  0  0  0  0
  -12.9320  -15.7060   41.3620 H   0  0  0  0  0  0  0  0  0  0  0  0
  -14.4180  -13.6090   33.0000 C   0  0  0  0  0  0  0  0  0  0  0  0
  -15.4230  -14.0240   34.0330 C   0  0  0  0  0  0  0  0  0  0  0  0
  -14.9780  -14.7750   35.2530 C   0  0  0  0  0  0  0  0  0  0  0  0
  -13.5270  -15.1110   35.4390 C   0  0  0  0  0  0  0  0  0  0  0  0
  -12.5220  -14.6950   34.4060 C   0  0  0  0  0  0  0  0  0  0  0  0
  -12.9670  -13.9440   33.1860 C   0  0  0  0  0  0  0  0  0  0  0  0
  -16.4200  -13.7940   33.9040 H   0  0  0  0  0  0  0  0  0  0  0  0
  -15.6690  -15.0610   35.9640 H   0  0  0  0  0  0  0  0  0  0  0  0
  -13.2200  -15.6270   36.2790 H   0  0  0  0  0  0  0  0  0  0  0  0
  -12.2760  -13.6590   32.4760 H   0  0  0  0  0  0  0  0  0  0  0  0
  -14.6550  -13.4500   30.4180 N   0  0  0  0  0  0  0  0  0  0  0  0
  -14.8630  -12.8580   31.7800 C   0  0  0  0  0  0  0  0  0  0  0  0
  -15.5170  -11.5160   31.9230 O   0  0  0  0  0  0  0  0  0  0  0  0
  -14.2250  -14.3310   30.3240 H   0  0  0  0  0  0  0  0  0  0  0  0
  -14.9470  -12.9570   29.6170 H   0  0  0  0  0  0  0  0  0  0  0  0
  1  2  1  0
  2  3  2  0
  2  8  1  0
  3  4  1  0
  4 10  1  0
  4  5  2  0
  5 11  1  0
  6  5  1  0
  6  7  1  0
  7 12  1  0
  8  6  2  0
  9  1  1  0
 13  7  1  0
 13 21  1  0
 14 13  2  0
 15 14  1  0
 15 16  2  0
 16 17  1  0
 17 21  2  0
 17 18  1  0
 18 25  1  0
 18 19  1  0
 20 26  1  0
 20 19  2  0
 21 20  1  0
 22 14  1  0
 23 15  1  0
 24 16  1  0
 27 32  2  0
 27 28  1  0
 28 29  2  0
 29 30  1  0
 29 34  1  0
 30 35  1  0
 31  1  1  0
 31 30  2  0
 32 31  1  0
 33 28  1  0
 36 32  1  0
 37 38  1  0
 38 39  2  0
 38 27  1  0
 40 37  1  0
 41 37  1  0
M  END
>  <minimizedAffinity>  (18) 
-9.73066425

$$$$

     RDKit          3D

 47 51  0  0  0  0  0  0  0  0999 V2000
  -15.4030  -13.2710   32.0880 C   0  0  0  0  0  0  0  0  0  0  0  0
  -14.0260  -13.6250   32.5650 C   0  0  0  0  0  0  0  0  0  0  0  0
  -13.8390  -14.2620   33.9100 C   0  0  0  0  0  0  0  0  0  0  0  0
  -15.0290  -14.5450   34.7780 C   0  0  0  0  0  0  0  0  0  0  0  0
  -15.1540  -15.1600   36.1400 C   0  0  0  0  0  0  0  0  0  0  0  0
  -16.6090  -15.1860   36.5050 C   0  0  0  0  0  0  0  0  0  0  0  0
  -17.3830  -14.5870   35.3680 N   0  0  0  0  0  0  0  0  0  0  0  0
  -16.4060  -14.1910   34.3000 N   0  0  0  0  0  0  0  0  0  0  0  0
  -16.5930  -13.5540   32.9550 N   0  0  0  0  0  0  0  0  0  0  0  0
  -13.2070  -13.4300   31.9680 H   0  0  0  0  0  0  0  0  0  0  0  0
  -12.8910  -14.5050   34.2380 H   0  0  0  0  0  0  0  0  0  0  0  0
  -17.1880  -15.7170   37.7830 C   0  0  0  0  0  0  0  0  0  0  0  0
  -17.3010  -17.1970   37.9960 C   0  0  0  0  0  0  0  0  0  0  0  0
  -17.8810  -17.7290   39.2740 C   0  0  0  0  0  0  0  0  0  0  0  0
  -18.3460  -16.7790   40.3380 C   0  0  0  0  0  0  0  0  0  0  0  0
  -18.9260  -17.3110   41.6160 F   0  0  0  0  0  0  0  0  0  0  0  0
  -18.2330  -15.2990   40.1240 C   0  0  0  0  0  0  0  0  0  0  0  0
  -17.6540  -14.7680   38.8470 C   0  0  0  0  0  0  0  0  0  0  0  0
  -16.9810  -17.8500   37.2640 H   0  0  0  0  0  0  0  0  0  0  0  0
  -17.9590  -18.7470   39.4210 H   0  0  0  0  0  0  0  0  0  0  0  0
  -18.5540  -14.6460   40.8570 H   0  0  0  0  0  0  0  0  0  0  0  0
  -17.5760  -13.7490   38.7000 H   0  0  0  0  0  0  0  0  0  0  0  0
  -14.0230  -15.6610   36.9890 C   0  0  0  0  0  0  0  0  0  0  0  0
  -14.2290  -15.8830   38.4570 C   0  0  0  0  0  0  0  0  0  0  0  0
  -13.0980  -16.3840   39.3060 C   0  0  0  0  0  0  0  0  0  0  0  0
  -11.7610  -16.6620   38.6860 N   0  0  0  0  0  0  0  0  0  0  0  0
  -11.5550  -16.4390   37.2170 C   0  0  0  0  0  0  0  0  0  0  0  0
  -10.2180  -16.7180   36.5970 N   0  0  0  0  0  0  0  0  0  0  0  0
  -12.6860  -15.9390   36.3680 N   0  0  0  0  0  0  0  0  0  0  0  0
  -15.1490  -15.6920   38.8840 H   0  0  0  0  0  0  0  0  0  0  0  0
  -13.2400  -16.5370   40.3170 H   0  0  0  0  0  0  0  0  0  0  0  0
  -10.0830  -16.5710   35.6330 H   0  0  0  0  0  0  0  0  0  0  0  0
   -9.0860  -17.2180   37.4450 C   0  0  0  0  0  0  0  0  0  0  0  0
   -8.1500  -16.2450   38.0970 C   0  0  0  0  0  0  0  0  0  0  0  0
   -7.0190  -16.7460   38.9460 C   0  0  0  0  0  0  0  0  0  0  0  0
   -6.8250  -18.2200   39.1420 C   0  0  0  0  0  0  0  0  0  0  0  0
   -7.7620  -19.1940   38.4900 C   0  0  0  0  0  0  0  0  0  0  0  0
   -8.8920  -18.6930   37.6420 C   0  0  0  0  0  0  0  0  0  0  0  0
   -8.2840  -15.2310   37.9620 H   0  0  0  0  0  0  0  0  0  0  0  0
   -6.3750  -16.0760   39.3940 H   0  0  0  0  0  0  0  0  0  0  0  0
   -6.0470  -18.5650   39.7260 H   0  0  0  0  0  0  0  0  0  0  0  0
   -7.6280  -20.2080   38.6260 H   0  0  0  0  0  0  0  0  0  0  0  0
   -9.5370  -19.3630   37.1930 H   0  0  0  0  0  0  0  0  0  0  0  0
  -15.5900  -12.6340   30.7430 C   0  0  0  0  0  0  0  0  0  0  0  0
  -14.7410  -12.4320   30.1230 H   0  0  0  0  0  0  0  0  0  0  0  0
  -16.5730  -12.3810   30.4020 H   0  0  0  0  0  0  0  0  0  0  0  0
  -15.7240  -12.1790   29.7830 H   0  0  0  0  0  0  0  0  0  0  0  0
  1  2  1  0
  1  9  2  0
  2  3  2  0
  3 11  1  0
  3  4  1  0
  4  5  2  0
  5  6  1  0
  5 23  1  0
  6 12  1  0
  7  6  2  0
  8  4  1  0
  8  7  1  0
  9  8  1  0
 10  2  1  0
 12 13  2  0
 12 18  1  0
 13 14  1  0
 14 20  1  0
 14 15  2  0
 15 16  1  0
 17 15  1  0
 17 21  1  0
 18 17  2  0
 19 13  1  0
 22 18  1  0
 23 24  1  0
 24 30  1  0
 24 25  2  0
 25 31  1  0
 26 25  1  0
 27 26  2  0
 28 27  1  0
 28 33  1  0
 29 23  2  0
 29 27  1  0
 32 28  1  0
 33 38  2  0
 33 34  1  0
 34 35  2  0
 35 36  1  0
 35 40  1  0
 36 41  1  0
 37 42  1  0
 37 36  2  0
 38 37  1  0
 39 34  1  0
 43 38  1  0
 44  1  1  0
 45 44  1  0
 46 44  1  0
 47 44  1  0
M  END
>  <minimizedAffinity>  (19) 
-9.56561089

$$$$

     RDKit          3D

 36 38  0  0  0  0  0  0  0  0999 V2000
  -14.6480  -16.3340   38.8150 C   0  0  0  0  0  0  0  0  0  0  0  0
  -14.9200  -15.7400   37.4650 C   0  0  0  0  0  0  0  0  0  0  0  0
  -15.9060  -16.6240   36.7600 C   0  0  0  0  0  0  0  0  0  0  0  0
  -16.4580  -16.4060   35.3820 O   0  0  0  0  0  0  0  0  0  0  0  0
  -16.2430  -17.7640   37.6740 N   0  0  0  0  0  0  0  0  0  0  0  0
  -15.4660  -17.5850   38.9440 C   0  0  0  0  0  0  0  0  0  0  0  0
  -15.4990  -18.4970   40.1350 O   0  0  0  0  0  0  0  0  0  0  0  0
  -16.8650  -18.5010   37.4740 H   0  0  0  0  0  0  0  0  0  0  0  0
  -12.2560  -16.0900   39.7980 C   0  0  0  0  0  0  0  0  0  0  0  0
  -11.3290  -15.5310   40.8370 C   0  0  0  0  0  0  0  0  0  0  0  0
  -11.8680  -14.6570   41.9310 C   0  0  0  0  0  0  0  0  0  0  0  0
  -13.3340  -14.3420   41.9860 C   0  0  0  0  0  0  0  0  0  0  0  0
  -14.2600  -14.9010   40.9470 C   0  0  0  0  0  0  0  0  0  0  0  0
  -13.7210  -15.7750   39.8540 C   0  0  0  0  0  0  0  0  0  0  0  0
  -10.3210  -15.7480   40.7990 H   0  0  0  0  0  0  0  0  0  0  0  0
  -11.2300  -14.2730   42.6450 H   0  0  0  0  0  0  0  0  0  0  0  0
  -13.7040  -13.7410   42.7380 H   0  0  0  0  0  0  0  0  0  0  0  0
  -15.2690  -14.6850   40.9850 H   0  0  0  0  0  0  0  0  0  0  0  0
  -11.7170  -16.9640   38.7050 O   0  0  0  0  0  0  0  0  0  0  0  0
  -10.2550  -16.9340   38.3730 C   0  0  0  0  0  0  0  0  0  0  0  0
   -9.5960  -16.2890   38.9160 H   0  0  0  0  0  0  0  0  0  0  0  0
   -9.8700  -17.5570   37.5920 H   0  0  0  0  0  0  0  0  0  0  0  0
   -9.2110  -16.9120   38.1360 H   0  0  0  0  0  0  0  0  0  0  0  0
  -14.3140  -14.4830   36.9160 N   0  0  0  0  0  0  0  0  0  0  0  0
  -14.4580  -13.6250   37.3770 H   0  0  0  0  0  0  0  0  0  0  0  0
  -13.4860  -14.5320   35.6650 C   0  0  0  0  0  0  0  0  0  0  0  0
  -12.0980  -15.0990   35.7060 C   0  0  0  0  0  0  0  0  0  0  0  0
  -11.2720  -15.1490   34.4560 C   0  0  0  0  0  0  0  0  0  0  0  0
  -11.8320  -14.6320   33.1650 C   0  0  0  0  0  0  0  0  0  0  0  0
  -13.2210  -14.0640   33.1240 C   0  0  0  0  0  0  0  0  0  0  0  0
  -14.0470  -14.0150   34.3740 C   0  0  0  0  0  0  0  0  0  0  0  0
  -11.7130  -15.4550   36.5950 H   0  0  0  0  0  0  0  0  0  0  0  0
  -10.3160  -15.5390   34.4840 H   0  0  0  0  0  0  0  0  0  0  0  0
  -11.2640  -14.6660   32.3050 H   0  0  0  0  0  0  0  0  0  0  0  0
  -13.6060  -13.7090   32.2350 H   0  0  0  0  0  0  0  0  0  0  0  0
  -15.0030  -13.6250   34.3460 H   0  0  0  0  0  0  0  0  0  0  0  0
  1  6  1  0
  1 14  1  0
  2  1  2  0
  3  2  1  0
  3  5  1  0
  4  3  2  0
  5  6  1  0
  6  7  2  0
  8  5  1  0
  9 14  2  0
  9 10  1  0
 10 11  2  0
 11 12  1  0
 11 16  1  0
 12 17  1  0
 13 18  1  0
 13 12  2  0
 14 13  1  0
 15 10  1  0
 19  9  1  0
 20 19  1  0
 20 21  1  0
 22 20  1  0
 23 20  1  0
 24 25  1  0
 24  2  1  0
 26 27  1  0
 26 24  1  0
 27 32  1  0
 28 33  1  0
 28 27  2  0
 29 28  1  0
 30 29  2  0
 30 31  1  0
 31 26  2  0
 34 29  1  0
 35 30  1  0
 36 31  1  0
M  END
>  <minimizedAffinity>  (20) 
-8.28791046

$$$$

     RDKit          3D

 47 42  0  0  0  0  0  0  0  0999 V2000
  -13.3040  -15.2180   34.7960 N   0  0  0  0  0 15  0  0  0  0  0  0
  -12.2070  -15.0830   33.7810 C   0  0  0  0  0  2  0  0  0  0  0  0
  -10.9390  -15.5930   34.3980 N   0  0  0  0  0  2  0  0  0  0  0  0
  -11.2510  -16.0430   35.7950 C   0  0  0  0  0  0  0  0  0  0  0  0
  -12.7120  -15.8120   36.0410 C   0  0  0  0  0  3  0  0  0  0  0  0
  -12.3080  -14.7060   32.8260 H   0  0  0  0  0  0  0  0  0  0  0  0
  -17.6090  -14.0480   34.2100 N   0  0  0  0  0  2  0  0  0  0  0  0
  -16.5250  -13.3000   33.4940 C   0  0  0  0  0  3  0  0  0  0  0  0
  -15.0890  -13.6900   33.6890 C   0  0  0  0  0  2  0  0  0  0  0  0
  -14.7390  -14.8280   34.6010 C   0  0  0  0  0  1  0  0  0  0  0  0
  -15.8230  -15.5760   35.3180 C   0  0  0  0  0  2  0  0  0  0  0  0
  -17.2590  -15.1860   35.1230 C   0  0  0  0  0  2  0  0  0  0  0  0
  -16.7750  -12.4880   32.8430 H   0  0  0  0  0  0  0  0  0  0  0  0
  -15.7510  -12.7670   32.9820 H   0  0  0  0  0  0  0  0  0  0  0  0
  -14.3160  -13.1570   33.1770 H   0  0  0  0  0  0  0  0  0  0  0  0
  -14.0660  -13.9690   33.8280 H   0  0  0  0  0  0  0  0  0  0  0  0
  -14.4890  -15.6400   35.2520 H   0  0  0  0  0  0  0  0  0  0  0  0
  -15.5730  -16.3880   35.9690 H   0  0  0  0  0  0  0  0  0  0  0  0
  -16.5970  -16.1100   35.8290 H   0  0  0  0  0  0  0  0  0  0  0  0
  -18.0320  -15.7200   35.6340 H   0  0  0  0  0  0  0  0  0  0  0  0
  -18.2820  -14.9080   34.9830 H   0  0  0  0  0  0  0  0  0  0  0  0
  -19.0440  -13.6590   34.0150 C   0  0  0  0  0  0  0  0  0  0  0  0
  -19.2940  -12.8470   33.3640 H   0  0  0  0  0  0  0  0  0  0  0  0
  -19.8180  -14.1920   34.5270 H   0  0  0  0  0  0  0  0  0  0  0  0
  -20.0680  -13.3800   33.8760 H   0  0  0  0  0  0  0  0  0  0  0  0
  -10.2730  -16.6240   36.7740 C   0  0  0  0  0  0  0  0  0  0  0  0
  -10.1360  -16.0230   38.1410 C   0  0  0  0  0  0  0  0  0  0  0  0
   -9.1580  -16.6040   39.1200 C   0  0  0  0  0  0  0  0  0  0  0  0
   -8.3180  -17.7840   38.7310 C   0  0  0  0  0  0  0  0  0  0  0  0
   -7.3410  -18.3640   39.7100 F   0  0  0  0  0  0  0  0  0  0  0  0
   -8.4570  -18.3850   37.3630 C   0  0  0  0  0  0  0  0  0  0  0  0
   -9.4340  -17.8040   36.3850 C   0  0  0  0  0  0  0  0  0  0  0  0
  -10.7130  -15.2110   38.4080 H   0  0  0  0  0  0  0  0  0  0  0  0
   -9.0630  -16.1900   40.0600 H   0  0  0  0  0  0  0  0  0  0  0  0
   -7.8790  -19.1970   37.0960 H   0  0  0  0  0  0  0  0  0  0  0  0
   -9.5290  -18.2180   35.4440 H   0  0  0  0  0  0  0  0  0  0  0  0
  -13.4530  -16.1190   37.3080 C   0  0  0  0  0  0  0  0  0  0  0  0
  -13.9060  -15.0040   38.2020 C   0  0  0  0  0  0  0  0  0  0  0  0
  -14.6470  -15.3120   39.4700 C   0  0  0  0  0  0  0  0  0  0  0  0
  -14.9350  -16.7360   39.8420 N   0  0  0  0  0  0  0  0  0  0  0  0
  -14.4820  -17.8510   38.9480 C   0  0  0  0  0  0  0  0  0  0  0  0
  -14.7700  -19.2760   39.3210 N   0  0  0  0  0  0  0  0  0  0  0  0
  -13.7410  -17.5440   37.6810 N   0  0  0  0  0  0  0  0  0  0  0  0
  -13.7080  -14.0240   37.9460 H   0  0  0  0  0  0  0  0  0  0  0  0
  -14.9590  -14.5440   40.0850 H   0  0  0  0  0  0  0  0  0  0  0  0
  -15.2570  -19.4780   40.1530 H   0  0  0  0  0  0  0  0  0  0  0  0
  -14.4730  -20.0080   38.7340 H   0  0  0  0  0  0  0  0  0  0  0  0
  2  3  1  0
  3  4  1  0
  4  5  2  0
  4 26  1  0
  5 37  1  0
  6  2  1  0
  8  7  1  0
  9 16  1  0
 10 17  1  0
 11 19  1  0
 11 18  1  0
 12 20  1  0
 13  8  1  0
 14  8  1  0
 15  9  1  0
 21 12  1  0
 22  7  1  0
 22 24  1  0
 23 22  1  0
 25 22  1  0
 26 27  1  0
 27 33  1  0
 27 28  2  0
 28 34  1  0
 29 28  1  0
 29 30  1  0
 31 29  2  0
 32 26  2  0
 32 31  1  0
 35 31  1  0
 36 32  1  0
 37 43  2  0
 37 38  1  0
 38 39  2  0
 39 40  1  0
 39 45  1  0
 41 42  1  0
 41 40  2  0
 42 46  1  0
 43 41  1  0
 44 38  1  0
 47 42  1  0
M  END
>  <minimizedAffinity>  (21) 
-9.11353397

$$$$

     RDKit          3D

 37 39  0  0  0  0  0  0  0  0999 V2000
  -11.6130  -15.0290   34.1490 C   0  0  0  0  0  0  0  0  0  0  0  0
  -11.0450  -15.0940   35.5350 C   0  0  0  0  0  0  0  0  0  0  0  0
   -9.9690  -16.1380   35.5480 C   0  0  0  0  0  0  0  0  0  0  0  0
   -9.8710  -16.7190   34.1680 N   0  0  0  0  0  0  0  0  0  0  0  0
  -10.8880  -16.0340   33.3030 N   0  0  0  0  0  0  0  0  0  0  0  0
  -11.3430  -14.5200   36.3400 H   0  0  0  0  0  0  0  0  0  0  0  0
  -11.0500  -16.2120   32.3490 H   0  0  0  0  0  0  0  0  0  0  0  0
   -9.1360  -16.5320   36.7310 C   0  0  0  0  0  0  0  0  0  0  0  0
   -8.1760  -15.5490   37.3340 C   0  0  0  0  0  0  0  0  0  0  0  0
   -7.3430  -15.9430   38.5170 C   0  0  0  0  0  0  0  0  0  0  0  0
   -7.4700  -17.3210   39.0980 C   0  0  0  0  0  0  0  0  0  0  0  0
   -8.4290  -18.3030   38.4950 C   0  0  0  0  0  0  0  0  0  0  0  0
   -9.2620  -17.9090   37.3110 C   0  0  0  0  0  0  0  0  0  0  0  0
   -8.0900  -14.6020   36.9340 H   0  0  0  0  0  0  0  0  0  0  0  0
   -6.6840  -15.2670   38.9320 H   0  0  0  0  0  0  0  0  0  0  0  0
   -6.8970  -17.5910   39.9120 H   0  0  0  0  0  0  0  0  0  0  0  0
   -9.9220  -18.5860   36.8970 H   0  0  0  0  0  0  0  0  0  0  0  0
   -8.5550  -19.6800   39.0760 O   0  0  0  0  0  0  0  0  0  0  0  0
   -8.0350  -19.9270   39.8150 H   0  0  0  0  0  0  0  0  0  0  0  0
  -12.7140  -14.1200   33.6880 N   0  0  0  0  0  0  0  0  0  0  0  0
  -12.5090  -13.3590   33.0980 H   0  0  0  0  0  0  0  0  0  0  0  0
  -16.9510  -14.8710   35.0030 C   0  0  0  0  0  0  0  0  0  0  0  0
  -15.8280  -15.6620   35.6050 C   0  0  0  0  0  0  0  0  0  0  0  0
  -14.4160  -15.4110   35.1670 C   0  0  0  0  0  0  0  0  0  0  0  0
  -14.1260  -14.3700   34.1260 C   0  0  0  0  0  0  0  0  0  0  0  0
  -15.2500  -13.5800   33.5240 C   0  0  0  0  0  0  0  0  0  0  0  0
  -16.6620  -13.8300   33.9620 C   0  0  0  0  0  0  0  0  0  0  0  0
  -16.0270  -16.3780   36.3210 H   0  0  0  0  0  0  0  0  0  0  0  0
  -13.6430  -15.9560   35.5810 H   0  0  0  0  0  0  0  0  0  0  0  0
  -15.0510  -12.8630   32.8080 H   0  0  0  0  0  0  0  0  0  0  0  0
  -17.4350  -13.2860   33.5480 H   0  0  0  0  0  0  0  0  0  0  0  0
  -18.3640  -15.1210   35.4410 S   0  0  2  0  0  0  0  0  0  0  0  0
  -18.0160  -14.6610   36.8250 O   0  0  0  0  0  0  0  0  0  0  0  0
  -18.7120  -15.5820   34.0560 O   0  0  0  0  0  0  0  0  0  0  0  0
  -19.7770  -15.3710   35.8790 N   0  0  0  0  0  0  0  0  0  0  0  0
  -20.0520  -15.1850   36.8430 H   0  0  0  0  0  0  0  0  0  0  0  0
  -20.4620  -15.7280   35.2130 H   0  0  0  0  0  0  0  0  0  0  0  0
  1  2  2  0
  2  3  1  0
  2  6  1  0
  3  8  1  0
  4  3  2  0
  5  1  1  0
  5  4  1  0
  7  5  1  0
  8 13  2  0
  8  9  1  0
  9 10  2  0
 10 15  1  0
 10 11  1  0
 11 16  1  0
 12 18  1  0
 12 11  2  0
 13 12  1  0
 14  9  1  0
 17 13  1  0
 18 19  1  0
 20 25  1  0
 20  1  1  0
 21 20  1  0
 22 32  1  0
 22 23  1  0
 23 28  1  0
 24 29  1  0
 24 23  2  0
 25 24  1  0
 26 27  1  0
 26 25  2  0
 27 22  2  0
 30 26  1  0
 31 27  1  0
 32 35  1  0
 32 33  2  0
 34 32  2  0
 35 36  1  0
 37 35  1  0
M  END
>  <minimizedAffinity>  (22) 
-8.61254406

$$$$

     RDKit          3D

 53 53  0  0  0  0  0  0  0  0999 V2000
  -13.8810  -13.5960   32.0150 N   0  0  0  0  0  0  0  0  0  0  0  0
  -12.9000  -14.2930   32.9120 C   0  0  0  0  0  0  0  0  0  0  0  0
  -11.5330  -14.7690   32.5200 N   0  0  0  0  0  0  0  0  0  0  0  0
  -10.9020  -15.4060   33.7240 C   0  0  0  0  0  0  0  0  0  0  0  0
  -11.8800  -15.3230   34.8580 C   0  0  0  0  0  0  0  0  0  0  0  0
  -13.1150  -14.6350   34.3560 O   0  0  0  0  0  0  0  0  0  0  0  0
  -13.6470  -13.4150   31.0770 H   0  0  0  0  0  0  0  0  0  0  0  0
   -9.9610  -15.8270   33.7630 H   0  0  0  0  0  0  0  0  0  0  0  0
  -11.6610  -15.8380   36.2500 C   0  0  0  0  0  0  0  0  0  0  0  0
  -10.2760  -16.1710   36.7180 C   0  0  0  0  0  0  0  0  0  0  0  0
  -10.0570  -16.6860   38.1090 C   0  0  0  0  0  0  0  0  0  0  0  0
  -11.2240  -16.8680   39.0330 C   0  0  0  0  0  0  0  0  0  0  0  0
  -12.6100  -16.5350   38.5660 C   0  0  0  0  0  0  0  0  0  0  0  0
  -12.8290  -16.0200   37.1740 C   0  0  0  0  0  0  0  0  0  0  0  0
   -9.4720  -16.0460   36.0810 H   0  0  0  0  0  0  0  0  0  0  0  0
   -9.1030  -16.9150   38.4310 H   0  0  0  0  0  0  0  0  0  0  0  0
  -11.0740  -17.2220   39.9900 H   0  0  0  0  0  0  0  0  0  0  0  0
  -13.7830  -15.7910   36.8530 H   0  0  0  0  0  0  0  0  0  0  0  0
  -13.7770  -16.7170   39.4900 C   0  0  0  0  0  0  0  0  0  0  0  0
  -13.8530  -15.9330   40.7660 C   0  0  0  0  0  0  0  0  0  0  0  0
  -15.0200  -16.1150   41.6910 C   0  0  0  0  0  0  0  0  0  0  0  0
  -16.1120  -17.0820   41.3390 C   0  0  0  0  0  0  0  0  0  0  0  0
  -16.0360  -17.8660   40.0620 C   0  0  0  0  0  0  0  0  0  0  0  0
  -14.8690  -17.6840   39.1380 C   0  0  0  0  0  0  0  0  0  0  0  0
  -14.7930  -18.4680   37.8620 F   0  0  0  0  0  0  0  0  0  0  0  0
  -13.1010  -15.2680   41.0080 H   0  0  0  0  0  0  0  0  0  0  0  0
  -15.0720  -15.5750   42.5700 H   0  0  0  0  0  0  0  0  0  0  0  0
  -16.9150  -17.2070   41.9750 H   0  0  0  0  0  0  0  0  0  0  0  0
  -16.7870  -18.5310   39.8200 H   0  0  0  0  0  0  0  0  0  0  0  0
  -17.2410  -13.5870   34.1270 C   0  0  0  0  0  3  0  0  0  0  0  0
  -17.8920  -12.3360   33.6190 C   0  0  0  0  0  0  0  0  0  0  0  0
  -17.2060  -11.5040   32.5760 C   0  0  0  0  0  0  0  0  0  0  0  0
  -15.8690  -11.9240   32.0420 C   0  0  0  0  0  0  0  0  0  0  0  0
  -15.2180  -13.1760   32.5500 C   0  0  0  0  0  0  0  0  0  0  0  0
  -15.9040  -14.0080   33.5930 C   0  0  0  0  0  0  0  0  0  0  0  0
  -18.8120  -12.0460   33.9870 H   0  0  0  0  0  0  0  0  0  0  0  0
  -17.6540  -10.6420   32.2260 H   0  0  0  0  0  0  0  0  0  0  0  0
  -15.4550  -14.8690   33.9430 H   0  0  0  0  0  0  0  0  0  0  0  0
  -17.9270  -14.4190   35.1700 S   0  0  0  0  0  0  0  0  0  0  0  0
  -18.8310  -13.2670   35.4950 O   0  0  0  0  0  0  0  0  0  0  0  0
  -17.0230  -15.5720   34.8460 O   0  0  0  0  0 15  0  0  0  0  0  0
  -18.6130  -15.2510   36.2130 C   0  0  0  0  0  3  0  0  0  0  0  0
  -19.5780  -15.6680   36.0150 H   0  0  0  0  0  0  0  0  0  0  0  0
  -19.0890  -15.0740   35.2710 H   0  0  0  0  0  0  0  0  0  0  0  0
  -17.9450  -15.4990   37.5330 C   0  0  0  0  0  0  0  0  0  0  0  0
  -18.4340  -16.0920   38.2770 H   0  0  0  0  0  0  0  0  0  0  0  0
  -16.9790  -15.0820   37.7310 H   0  0  0  0  0  0  0  0  0  0  0  0
  -17.4680  -15.6760   38.4750 H   0  0  0  0  0  0  0  0  0  0  0  0
  -15.1830  -11.0920   30.9990 O   0  0  0  0  0  0  0  0  0  0  0  0
  -15.6610   -9.6980   30.7170 C   0  0  0  0  0  0  0  0  0  0  0  0
  -15.1720   -9.1050   29.9730 H   0  0  0  0  0  0  0  0  0  0  0  0
  -16.4920   -9.2970   31.2600 H   0  0  0  0  0  0  0  0  0  0  0  0
  -16.0020   -8.7040   30.5160 H   0  0  0  0  0  0  0  0  0  0  0  0
  1 34  1  0
  1  2  1  0
  2  6  1  0
  3  2  2  0
  3  4  1  0
  4  8  1  0
  4  5  2  0
  5  9  1  0
  6  5  1  0
  7  1  1  0
  9 10  2  0
  9 14  1  0
 10 11  1  0
 11 16  1  0
 11 12  2  0
 12 17  1  0
 13 12  1  0
 13 19  1  0
 14 13  2  0
 15 10  1  0
 18 14  1  0
 19 20  1  0
 20 26  1  0
 20 21  2  0
 21 27  1  0
 22 21  1  0
 22 28  1  0
 23 22  2  0
 24 19  2  0
 24 23  1  0
 25 24  1  0
 29 23  1  0
 31 36  1  0
 31 30  1  0
 32 31  2  0
 33 34  2  0
 33 32  1  0
 34 35  1  0
 35 38  1  0
 35 30  2  0
 37 32  1  0
 39 40  2  0
 42 45  1  0
 43 42  1  0
 44 42  1  0
 45 47  1  0
 45 46  1  0
 45 48  1  0
 49 33  1  0
 50 49  1  0
 50 52  1  0
 51 50  1  0
 53 50  1  0
M  END
>  <minimizedAffinity>  (23) 
-9.54323483

$$$$

     RDKit          3D

 34 30  0  0  0  0  0  0  0  0999 V2000
  -14.0510  -14.9690   35.6510 C   0  0  0  0  0  0  0  0  0  0  0  0
  -12.5640  -15.0160   35.4550 C   0  0  0  0  0  0  0  0  0  0  0  0
  -12.2500  -14.3880   34.1290 S   0  0  0  0  0  0  0  0  0  0  0  0
  -13.5440  -13.9530   33.5050 C   0  0  0  0  0 15  0  0  0  0  0  0
  -14.6560  -14.3120   34.4460 C   0  0  0  0  0  3  0  0  0  0  0  0
  -16.0770  -13.9940   34.0840 C   0  0  0  0  0  3  0  0  0  0  0  0
  -16.3850  -13.3170   32.7810 C   0  0  0  0  0  2  0  0  0  0  0  0
  -15.2730  -12.9580   31.8410 C   0  0  0  0  0  2  0  0  0  0  0  0
  -13.8520  -13.2760   32.2030 C   0  0  0  0  0  2  0  0  0  0  0  0
  -16.8700  -14.2500   34.7540 H   0  0  0  0  0  0  0  0  0  0  0  0
  -17.0900  -13.7670   33.8250 H   0  0  0  0  0  0  0  0  0  0  0  0
  -17.3980  -13.0900   32.5220 H   0  0  0  0  0  0  0  0  0  0  0  0
  -16.6050  -12.8340   31.8520 H   0  0  0  0  0  0  0  0  0  0  0  0
  -15.4930  -12.4750   30.9110 H   0  0  0  0  0  0  0  0  0  0  0  0
  -14.4800  -12.7020   31.1700 H   0  0  0  0  0  0  0  0  0  0  0  0
  -13.0590  -13.0200   31.5320 H   0  0  0  0  0  0  0  0  0  0  0  0
  -12.8390  -13.5030   32.4610 H   0  0  0  0  0  0  0  0  0  0  0  0
  -11.5660  -15.5900   36.4160 N   0  0  0  0  0  0  0  0  0  0  0  0
  -10.2890  -16.1880   35.9030 C   0  0  0  0  0  0  0  0  0  0  0  0
  -10.0110  -16.2110   34.4300 O   0  0  0  0  0  0  0  0  0  0  0  0
  -11.7490  -15.5750   37.3840 H   0  0  0  0  0  0  0  0  0  0  0  0
   -9.2910  -16.7620   36.8650 C   0  0  0  0  0  0  0  0  0  0  0  0
   -8.4400  -15.8490   37.6970 C   0  0  0  0  0  0  0  0  0  0  0  0
   -7.4420  -16.4230   38.6580 C   0  0  0  0  0  0  0  0  0  0  0  0
   -7.2950  -17.9100   38.7870 C   0  0  0  0  0  0  0  0  0  0  0  0
   -6.2970  -18.4850   39.7480 F   0  0  0  0  0  0  0  0  0  0  0  0
   -8.1460  -18.8230   37.9550 C   0  0  0  0  0  0  0  0  0  0  0  0
   -9.1440  -18.2490   36.9940 C   0  0  0  0  0  0  0  0  0  0  0  0
   -8.5410  -14.8260   37.6080 H   0  0  0  0  0  0  0  0  0  0  0  0
   -6.8560  -15.7950   39.2300 H   0  0  0  0  0  0  0  0  0  0  0  0
   -8.0450  -19.8470   38.0440 H   0  0  0  0  0  0  0  0  0  0  0  0
   -9.7300  -18.8770   36.4210 H   0  0  0  0  0  0  0  0  0  0  0  0
  -15.5490  -16.0070   38.0340 N   0  0  0  0  0  1  0  0  0  0  0  0
  -14.8000  -15.4880   36.8420 C   0  0  0  0  0  2  0  0  0  0  0  0
  1 34  1  0
  2  1  1  0
  2 18  1  0
  3  2  2  0
  5  1  2  0
  6  5  1  0
  6 10  1  0
  9 17  1  0
 11  6  1  0
 12  7  1  0
 13  7  1  0
 14  8  1  0
 15  8  1  0
 16  9  1  0
 18 21  1  0
 19 18  1  0
 19 22  1  0
 20 19  2  0
 22 28  2  0
 22 23  1  0
 23 24  2  0
 24 25  1  0
 24 30  1  0
 25 26  1  0
 27 31  1  0
 27 25  2  0
 28 27  1  0
 29 23  1  0
 32 28  1  0
 34 33  1  0
M  END
>  <minimizedAffinity>  (24) 
-8.17233372

$$$$

     RDKit          3D

 44 46  0  0  1  0  0  0  0  0999 V2000
  -13.8490  -16.4770   37.8970 C   0  0  0  0  0  1  0  0  0  0  0  0
  -15.1180  -15.9540   38.5000 N   0  0  0  0  0  2  0  0  0  0  0  0
  -15.9890  -15.4530   37.3860 C   0  0  0  0  0  0  0  0  0  0  0  0
  -17.3540  -14.8300   37.3820 C   0  0  0  0  0  0  0  0  0  0  0  0
  -17.9870  -14.4200   36.0850 C   0  0  0  0  0  0  0  0  0  0  0  0
  -17.2550  -14.6330   34.7930 C   0  0  0  0  0  0  0  0  0  0  0  0
  -15.8910  -15.2560   34.7980 C   0  0  0  0  0  0  0  0  0  0  0  0
  -15.2580  -15.6660   36.0940 C   0  0  0  0  0  0  0  0  0  0  0  0
  -13.9350  -16.2980   36.4090 N   0  0  0  0  0  2  0  0  0  0  0  0
  -17.8570  -14.6830   38.2710 H   0  0  0  0  0  0  0  0  0  0  0  0
  -18.9260  -13.9910   36.0820 H   0  0  0  0  0  0  0  0  0  0  0  0
  -15.3870  -15.4020   33.9080 H   0  0  0  0  0  0  0  0  0  0  0  0
  -13.2440  -16.5520   35.7550 H   0  0  0  0  0  0  0  0  0  0  0  0
  -17.8880  -14.2230   33.4960 N   0  0  0  0  0  0  0  0  0  0  0  0
  -17.0930  -13.4530   32.4840 C   0  0  0  0  0  3  0  0  0  0  0  0
  -15.6650  -13.0930   32.7680 N   0  0  0  0  0  0  0  0  0  0  0  0
  -14.8700  -12.3230   31.7560 C   0  0  0  0  0  0  0  0  0  0  0  0
  -15.5030  -11.9130   30.4590 N   0  0  0  0  0  2  0  0  0  0  0  0
  -16.9310  -12.2730   30.1750 C   0  0  0  0  0  0  0  0  0  0  0  0
  -17.5640  -11.8630   28.8780 C   0  0  0  0  0  0  0  0  0  0  0  0
  -18.9920  -12.2230   28.5940 C   0  0  0  0  0  0  0  0  0  0  0  0
  -19.7870  -12.9930   29.6070 C   0  0  0  0  0  0  0  0  0  0  0  0
  -19.1540  -13.4030   30.9030 C   0  0  0  0  0  0  0  0  0  0  0  0
  -17.7260  -13.0430   31.1870 C   0  0  0  0  0  0  0  0  0  0  0  0
  -18.8260  -14.4590   33.3100 H   0  0  0  0  0  0  0  0  0  0  0  0
  -13.8870  -12.0760   31.9510 H   0  0  0  0  0  0  0  0  0  0  0  0
  -17.0170  -11.3340   28.1820 H   0  0  0  0  0  0  0  0  0  0  0  0
  -19.4280  -11.9410   27.7020 H   0  0  0  0  0  0  0  0  0  0  0  0
  -20.7700  -13.2410   29.4110 H   0  0  0  0  0  0  0  0  0  0  0  0
  -19.7010  -13.9330   31.6000 H   0  0  0  0  0  0  0  0  0  0  0  0
  -12.6950  -17.0730   38.6480 C   0  0  0  0  0  3  0  0  0  0  0  0
  -12.8770  -17.7350   39.4690 H   0  0  0  0  0  0  0  0  0  0  0  0
  -13.7000  -17.3100   38.9330 H   0  0  0  0  0  0  0  0  0  0  0  0
   -8.4740  -16.0770   37.4490 C   0  0  0  0  0  0  0  0  0  0  0  0
   -8.8800  -16.0100   38.8920 C   0  0  0  0  0  0  0  0  0  0  0  0
  -10.2870  -16.3420   39.2910 C   0  0  0  0  0  0  0  0  0  0  0  0
  -11.2880  -16.7410   38.2480 C   0  0  0  0  0  0  0  0  0  0  0  0
  -10.8820  -16.8090   36.8060 C   0  0  0  0  0  0  0  0  0  0  0  0
   -9.4750  -16.4770   36.4060 C   0  0  0  0  0  0  0  0  0  0  0  0
   -7.5050  -15.8490   37.1740 H   0  0  0  0  0  0  0  0  0  0  0  0
   -8.1910  -15.7350   39.6090 H   0  0  0  0  0  0  0  0  0  0  0  0
  -10.5660  -16.2950   40.2840 H   0  0  0  0  0  0  0  0  0  0  0  0
  -11.5710  -17.0830   36.0880 H   0  0  0  0  0  0  0  0  0  0  0  0
   -9.1960  -16.5230   35.4140 H   0  0  0  0  0  0  0  0  0  0  0  0
  1  2  1  0
  3  2  1  0
  4  3  1  0
  4 10  1  0
  5  4  2  0
  6  7  2  0
  6  5  1  0
  7  8  1  0
  8  9  1  0
  8  3  2  0
 11  5  1  0
 12  7  1  0
 13  9  1  0
 14  6  1  0
 15 16  1  0
 15 14  1  0
 17 26  1  0
 17 16  2  0
 18 17  1  0
 19 18  1  0
 19 24  1  0
 20 19  2  0
 21 20  1  0
 21 22  2  0
 22 23  1  0
 23 24  2  0
 23 30  1  0
 24 15  1  0
 25 14  1  0
 27 20  1  0
 28 21  1  0
 29 22  1  0
 31 33  1  0
 31 32  1  0
 34 35  1  0
 35 36  2  0
 35 41  1  0
 36 42  1  0
 37 31  1  0
 37 36  1  0
 38 37  2  0
 39 38  1  0
 39 34  2  0
 40 34  1  0
 43 38  1  0
 44 39  1  0
M  END
>  <minimizedAffinity>  (25) 
-9.31038952

$$$$

     RDKit          3D

 44 43  0  0  0  0  0  0  0  0999 V2000
  -12.0930  -16.6910   37.9440 C   0  0  0  0  0  1  0  0  0  0  0  0
  -10.6120  -16.6850   38.1850 C   0  0  0  0  0  2  0  0  0  0  0  0
   -9.6760  -16.2690   37.0890 C   0  0  0  0  0  0  0  0  0  0  0  0
  -10.2200  -15.8590   35.7530 C   0  0  0  0  0  0  0  0  0  0  0  0
  -11.7000  -15.8650   35.5120 C   0  0  0  0  0  0  0  0  0  0  0  0
  -12.6370  -16.2810   36.6080 C   0  0  0  0  0  0  0  0  0  0  0  0
  -10.2370  -16.9670   39.1040 H   0  0  0  0  0  0  0  0  0  0  0  0
   -8.6570  -16.2650   37.2550 H   0  0  0  0  0  0  0  0  0  0  0  0
   -9.5750  -15.5720   34.9990 H   0  0  0  0  0  0  0  0  0  0  0  0
  -14.1170  -16.2870   36.3670 C   0  0  0  0  0  0  0  0  0  0  0  0
  -14.9470  -15.1030   36.7660 C   0  0  0  0  0  0  0  0  0  0  0  0
  -14.5650  -17.1060   35.9260 H   0  0  0  0  0  0  0  0  0  0  0  0
  -14.4990  -14.2840   37.2060 H   0  0  0  0  0  0  0  0  0  0  0  0
  -16.4270  -15.1090   36.5250 C   0  0  0  0  0  0  0  0  0  0  0  0
  -17.3750  -15.2440   37.6800 C   0  0  0  0  0  0  0  0  0  0  0  0
  -18.8550  -15.2500   37.4390 N   0  0  0  0  0  0  0  0  0  0  0  0
  -19.3880  -15.1210   36.0430 C   0  0  0  0  0  0  0  0  0  0  0  0
  -18.4410  -14.9860   34.8880 C   0  0  0  0  0  0  0  0  0  0  0  0
  -16.9600  -14.9800   35.1290 C   0  0  0  0  0  0  0  0  0  0  0  0
  -17.0070  -15.3320   38.6410 H   0  0  0  0  0  0  0  0  0  0  0  0
  -20.4070  -15.1250   35.8770 H   0  0  0  0  0  0  0  0  0  0  0  0
  -16.3090  -14.8870   34.3340 H   0  0  0  0  0  0  0  0  0  0  0  0
  -18.9740  -14.8570   33.4920 C   0  0  0  0  0  0  0  0  0  0  0  0
  -19.5470  -16.0550   32.7940 O   0  0  0  0  0  0  0  0  0  0  0  0
  -18.9350  -13.5300   32.7930 N   0  0  0  0  0  0  0  0  0  0  0  0
  -18.5590  -12.7450   33.2510 H   0  0  0  0  0  0  0  0  0  0  0  0
  -19.4680  -13.4020   31.3970 C   0  0  0  0  0  0  0  0  0  0  0  0
  -19.4400  -12.4550   30.8990 H   0  0  0  0  0  0  0  0  0  0  0  0
  -19.8760  -14.2560   30.9000 H   0  0  0  0  0  0  0  0  0  0  0  0
  -19.8480  -13.3090   30.4010 H   0  0  0  0  0  0  0  0  0  0  0  0
  -13.0290  -17.1080   39.0390 C   0  0  0  0  0  3  0  0  0  0  0  0
  -13.3930  -18.1130   39.0790 H   0  0  0  0  0  0  0  0  0  0  0  0
  -12.7250  -17.8160   38.2970 H   0  0  0  0  0  0  0  0  0  0  0  0
  -13.4550  -16.1140   40.0790 C   0  0  0  0  0  0  0  0  0  0  0  0
  -13.0920  -15.1080   40.0400 H   0  0  0  0  0  0  0  0  0  0  0  0
  -14.1230  -16.4110   40.8600 H   0  0  0  0  0  0  0  0  0  0  0  0
  -13.7600  -15.4050   40.8210 H   0  0  0  0  0  0  0  0  0  0  0  0
  -12.2440  -15.4540   34.1760 C   0  0  0  0  0  0  0  0  0  0  0  0
  -12.3000  -16.1670   33.3790 H   0  0  0  0  0  0  0  0  0  0  0  0
  -12.6330  -15.1610   33.2230 H   0  0  0  0  0  0  0  0  0  0  0  0
  -12.7100  -14.0450   33.9560 C   0  0  0  0  0  0  0  0  0  0  0  0
  -12.6540  -13.3330   34.7530 H   0  0  0  0  0  0  0  0  0  0  0  0
  -13.0980  -13.7530   33.0030 H   0  0  0  0  0  0  0  0  0  0  0  0
  -13.0420  -13.0400   33.7990 H   0  0  0  0  0  0  0  0  0  0  0  0
  2  7  1  0
  3  8  1  0
  3  2  1  0
  4  3  2  0
  5  4  1  0
  5  6  2  0
  6  1  1  0
  9  4  1  0
 10  6  1  0
 10 11  2  0
 11 13  1  0
 12 10  1  0
 14 11  1  0
 14 15  1  0
 15 20  1  0
 16 15  2  0
 17 16  1  0
 18 19  1  0
 18 17  2  0
 19 14  2  0
 21 17  1  0
 22 19  1  0
 23 18  1  0
 24 23  2  0
 25 26  1  0
 25 23  1  0
 27 25  1  0
 28 27  1  0
 29 27  1  0
 30 27  1  0
 31 32  1  0
 31 34  1  0
 33 31  1  0
 34 37  1  0
 34 36  1  0
 35 34  1  0
 38  5  1  0
 39 38  1  0
 40 38  1  0
 41 38  1  0
 41 42  1  0
 43 41  1  0
 44 41  1  0
M  END
>  <minimizedAffinity>  (26) 
-8.45501614

$$$$

     RDKit          3D

 27 26  0  0  0  0  0  0  0  0999 V2000
  -12.9780  -16.2190   36.6020 N   0  0  0  0  0 15  0  0  0  0  0  0
  -11.5480  -15.8570   36.3310 C   0  0  0  0  0  2  0  0  0  0  0  0
  -11.5240  -14.8660   35.2050 N   0  0  0  0  0  2  0  0  0  0  0  0
  -12.9410  -14.6160   34.7790 C   0  0  0  0  0  0  0  0  0  0  0  0
  -13.5280  -13.7340   33.7170 C   0  0  0  0  0  0  0  0  0  0  0  0
  -15.0140  -13.6890   33.5180 C   0  0  0  0  0  0  0  0  0  0  0  0
  -15.9120  -14.5250   34.3800 N   0  0  0  0  0  0  0  0  0  0  0  0
  -15.3250  -15.4060   35.4420 C   0  0  0  0  0  0  0  0  0  0  0  0
  -13.8390  -15.4520   35.6420 C   0  0  0  0  0  3  0  0  0  0  0  0
  -12.9100  -13.1590   33.1240 H   0  0  0  0  0  0  0  0  0  0  0  0
  -15.4190  -13.0830   32.7870 H   0  0  0  0  0  0  0  0  0  0  0  0
  -15.9430  -15.9810   36.0360 H   0  0  0  0  0  0  0  0  0  0  0  0
  -10.3500  -16.3920   37.0600 C   0  0  0  0  0  0  0  0  0  0  0  0
  -10.1930  -16.4840   38.5490 N   0  0  0  0  0  0  0  0  0  0  0  0
   -8.8450  -17.0780   38.8360 O   0  0  0  0  0  0  0  0  0  0  0  0
   -8.1700  -17.3520   37.5250 N   0  0  0  0  0  0  0  0  0  0  0  0
   -9.1000  -16.9280   36.4270 C   0  0  0  0  0  0  0  0  0  0  0  0
   -8.8280  -17.0240   34.9550 N   0  0  0  0  0  0  0  0  0  0  0  0
   -9.5040  -16.7180   34.3090 H   0  0  0  0  0  0  0  0  0  0  0  0
   -7.9730  -17.3930   34.6350 H   0  0  0  0  0  0  0  0  0  0  0  0
  -13.4620  -17.1790   37.6470 C   0  0  0  0  0  3  0  0  0  0  0  0
  -13.5570  -18.2200   37.4150 H   0  0  0  0  0  0  0  0  0  0  0  0
  -13.2110  -17.5340   36.6690 H   0  0  0  0  0  0  0  0  0  0  0  0
  -13.8140  -16.6820   39.0170 C   0  0  0  0  0  0  0  0  0  0  0  0
  -13.7200  -15.6410   39.2490 H   0  0  0  0  0  0  0  0  0  0  0  0
  -14.1600  -17.3660   39.7620 H   0  0  0  0  0  0  0  0  0  0  0  0
  -14.0650  -16.3270   39.9950 H   0  0  0  0  0  0  0  0  0  0  0  0
  2 13  1  0
  3  2  1  0
  4  3  1  0
  4  9  1  0
  5  4  2  0
  6  5  1  0
  6  7  2  0
  7  8  1  0
  8  9  2  0
  8 12  1  0
 10  5  1  0
 11  6  1  0
 13 14  2  0
 14 15  1  0
 16 15  1  0
 17 13  1  0
 17 16  2  0
 18 17  1  0
 19 18  1  0
 20 18  1  0
 21 24  1  0
 22 21  1  0
 23 21  1  0
 24 25  1  0
 24 26  1  0
 24 27  1  0
M  END
>  <minimizedAffinity>  (27) 
-7.65640831

$$$$

     RDKit          3D

 32 34  0  0  0  0  0  0  0  0999 V2000
  -17.6940  -15.7450   36.6550 O   0  0  0  0  0  0  0  0  0  0  0  0
  -16.5370  -16.3760   37.3710 C   0  0  0  0  0  0  0  0  0  0  0  0
  -16.6040  -17.5790   38.2650 N   0  0  0  0  0  0  0  0  0  0  0  0
  -15.2190  -17.8610   38.7660 C   0  0  0  0  0  0  0  0  0  0  0  0
  -14.8240  -18.9750   39.6890 O   0  0  0  0  0  0  0  0  0  0  0  0
  -14.2960  -16.8330   38.1820 C   0  0  0  0  0  0  0  0  0  0  0  0
  -15.1110  -15.9150   37.3200 C   0  0  0  0  0  0  0  0  0  0  0  0
  -17.4150  -18.0920   38.4840 H   0  0  0  0  0  0  0  0  0  0  0  0
  -12.8170  -16.7390   38.4180 C   0  0  0  0  0  0  0  0  0  0  0  0
  -11.8590  -17.2670   37.3920 C   0  0  0  0  0  0  0  0  0  0  0  0
  -10.3810  -17.1730   37.6280 C   0  0  0  0  0  0  0  0  0  0  0  0
   -9.8610  -16.5510   38.8900 C   0  0  0  0  0  0  0  0  0  0  0  0
  -10.8190  -16.0230   39.9160 C   0  0  0  0  0  0  0  0  0  0  0  0
  -12.2970  -16.1170   39.6800 C   0  0  0  0  0  0  0  0  0  0  0  0
  -12.2170  -17.6950   36.5230 H   0  0  0  0  0  0  0  0  0  0  0  0
   -9.7210  -17.5370   36.9220 H   0  0  0  0  0  0  0  0  0  0  0  0
   -8.8430  -16.4870   39.0520 H   0  0  0  0  0  0  0  0  0  0  0  0
  -10.4610  -15.5960   40.7840 H   0  0  0  0  0  0  0  0  0  0  0  0
  -12.9570  -15.7540   40.3860 H   0  0  0  0  0  0  0  0  0  0  0  0
  -14.5910  -14.7420   36.5430 N   0  0  0  0  0  0  0  0  0  0  0  0
  -14.9000  -13.8330   36.7570 H   0  0  0  0  0  0  0  0  0  0  0  0
  -13.5980  -14.9550   35.4380 C   0  0  0  0  0  0  0  0  0  0  0  0
  -14.0000  -15.7020   34.2010 C   0  0  0  0  0  0  0  0  0  0  0  0
  -13.0080  -15.9150   33.0970 C   0  0  0  0  0  0  0  0  0  0  0  0
  -11.6130  -15.3790   33.2290 C   0  0  0  0  0  0  0  0  0  0  0  0
  -11.2110  -14.6310   34.4650 C   0  0  0  0  0  0  0  0  0  0  0  0
  -12.2030  -14.4190   35.5700 C   0  0  0  0  0  0  0  0  0  0  0  0
  -14.9600  -16.0710   34.1100 H   0  0  0  0  0  0  0  0  0  0  0  0
  -13.2840  -16.4290   32.2460 H   0  0  0  0  0  0  0  0  0  0  0  0
  -10.9300  -15.5250   32.4690 H   0  0  0  0  0  0  0  0  0  0  0  0
  -10.2510  -14.2630   34.5570 H   0  0  0  0  0  0  0  0  0  0  0  0
  -11.9270  -13.9050   36.4210 H   0  0  0  0  0  0  0  0  0  0  0  0
  1  2  2  0
  2  3  1  0
  3  8  1  0
  3  4  1  0
  4  5  2  0
  6  9  1  0
  6  4  1  0
  7  2  1  0
  7  6  2  0
  9 14  1  0
 10 11  1  0
 10  9  2  0
 11 12  2  0
 12 17  1  0
 12 13  1  0
 13 18  1  0
 14 13  2  0
 14 19  1  0
 15 10  1  0
 16 11  1  0
 20 21  1  0
 20  7  1  0
 22 27  1  0
 22 20  1  0
 23 22  2  0
 24 25  2  0
 24 23  1  0
 25 26  1  0
 26 31  1  0
 26 27  2  0
 27 32  1  0
 28 23  1  0
 29 24  1  0
 30 25  1  0
M  END
>  <minimizedAffinity>  (28) 
-7.79376173

$$$$

     RDKit          3D

 35 36  0  0  0  0  0  0  0  0999 V2000
  -14.4570  -16.7180   37.2740 C   0  0  0  0  0  0  0  0  0  0  0  0
  -13.3710  -15.9370   36.5950 C   0  0  0  0  0  0  0  0  0  0  0  0
  -14.2160  -17.5210   37.8760 H   0  0  0  0  0  0  0  0  0  0  0  0
  -13.6120  -15.1350   35.9930 H   0  0  0  0  0  0  0  0  0  0  0  0
  -11.9350  -16.3230   36.7920 C   0  0  0  0  0  0  0  0  0  0  0  0
  -11.5530  -17.2480   37.9090 C   0  0  0  0  0  0  0  0  0  0  0  0
  -10.1160  -17.6330   38.1060 C   0  0  0  0  0  0  0  0  0  0  0  0
   -9.0620  -17.0930   37.1850 C   0  0  0  0  0  0  0  0  0  0  0  0
   -9.4440  -16.1680   36.0680 C   0  0  0  0  0  0  0  0  0  0  0  0
  -10.8800  -15.7830   35.8710 C   0  0  0  0  0  0  0  0  0  0  0  0
  -12.2780  -17.6190   38.5420 H   0  0  0  0  0  0  0  0  0  0  0  0
   -9.8530  -18.2700   38.8750 H   0  0  0  0  0  0  0  0  0  0  0  0
   -8.0740  -17.3590   37.3210 H   0  0  0  0  0  0  0  0  0  0  0  0
   -8.7190  -15.7970   35.4350 H   0  0  0  0  0  0  0  0  0  0  0  0
  -11.2620  -14.8580   34.7540 C   0  0  0  0  0  0  0  0  0  0  0  0
  -10.5100  -14.4730   34.0980 H   0  0  0  0  0  0  0  0  0  0  0  0
  -12.2870  -14.5830   34.6140 H   0  0  0  0  0  0  0  0  0  0  0  0
  -11.5350  -14.1980   33.9570 H   0  0  0  0  0  0  0  0  0  0  0  0
  -17.7470  -15.2230   35.6350 C   0  0  0  0  0  0  0  0  0  0  0  0
  -18.7650  -15.5620   36.6830 C   0  0  0  0  0  0  0  0  0  0  0  0
  -18.3470  -16.2870   37.9280 N   0  0  0  0  0  0  0  0  0  0  0  0
  -16.9110  -16.6720   38.1250 C   0  0  0  0  0  0  0  0  0  0  0  0
  -15.8930  -16.3330   37.0770 C   0  0  0  0  0  0  0  0  0  0  0  0
  -16.3110  -15.6090   35.8320 C   0  0  0  0  0  0  0  0  0  0  0  0
  -19.7540  -15.2970   36.5480 H   0  0  0  0  0  0  0  0  0  0  0  0
  -16.6230  -17.1710   38.9820 H   0  0  0  0  0  0  0  0  0  0  0  0
  -15.6110  -15.3750   35.1110 H   0  0  0  0  0  0  0  0  0  0  0  0
  -17.7870  -13.0610   34.1960 N   0  0  0  0  0  0  0  0  0  0  0  0
  -18.1660  -14.4990   34.3900 C   0  0  0  0  0  0  0  0  0  0  0  0
  -18.9630  -15.2130   33.3390 O   0  0  0  0  0  0  0  0  0  0  0  0
  -17.2630  -12.5920   34.8860 H   0  0  0  0  0  0  0  0  0  0  0  0
  -18.2050  -12.3360   32.9510 C   0  0  0  0  0  0  0  0  0  0  0  0
  -17.9350  -11.3100   32.8130 H   0  0  0  0  0  0  0  0  0  0  0  0
  -18.7740  -12.8460   32.2010 H   0  0  0  0  0  0  0  0  0  0  0  0
  -18.5040  -11.8190   32.0630 H   0  0  0  0  0  0  0  0  0  0  0  0
  1  3  1  0
  2  5  1  0
  2  1  2  0
  4  2  1  0
  5  6  1  0
  6  7  2  0
  6 11  1  0
  7 12  1  0
  8 13  1  0
  8  7  1  0
  9  8  2  0
 10  9  1  0
 10  5  2  0
 14  9  1  0
 15 10  1  0
 16 15  1  0
 17 15  1  0
 18 15  1  0
 19 24  2  0
 19 20  1  0
 20 21  2  0
 21 22  1  0
 22 26  1  0
 23  1  1  0
 23 22  2  0
 24 23  1  0
 25 20  1  0
 27 24  1  0
 28 29  1  0
 28 31  1  0
 29 19  1  0
 30 29  2  0
 32 28  1  0
 33 32  1  0
 34 32  1  0
 35 32  1  0
M  END
>  <minimizedAffinity>  (29) 
-7.69171619

$$$$

     RDKit          3D

 39 42  0  0  0  0  0  0  0  0999 V2000
  -13.1520  -16.4080   36.9030 C   0  0  0  0  0  0  0  0  0  0  0  0
  -14.5930  -16.5410   37.2990 N   0  0  0  0  0  0  0  0  0  0  0  0
  -14.6460  -17.2380   38.6260 C   0  0  0  0  0  0  0  0  0  0  0  0
  -13.2390  -17.5370   39.0500 N   0  0  0  0  0  0  0  0  0  0  0  0
  -12.3150  -17.0240   37.9840 C   0  0  0  0  0  0  0  0  0  0  0  0
  -12.9680  -17.9900   39.8810 H   0  0  0  0  0  0  0  0  0  0  0  0
  -15.8890  -17.5770   39.3940 C   0  0  0  0  0  0  0  0  0  0  0  0
  -15.7830  -18.2190   40.7460 C   0  0  0  0  0  0  0  0  0  0  0  0
  -17.0260  -18.5580   41.5140 C   0  0  0  0  0  0  0  0  0  0  0  0
  -18.3750  -18.2560   40.9310 C   0  0  0  0  0  0  0  0  0  0  0  0
  -18.4800  -17.6140   39.5800 C   0  0  0  0  0  0  0  0  0  0  0  0
  -17.2380  -17.2740   38.8110 C   0  0  0  0  0  0  0  0  0  0  0  0
  -14.8560  -18.4280   41.1480 H   0  0  0  0  0  0  0  0  0  0  0  0
  -16.9530  -19.0000   42.4440 H   0  0  0  0  0  0  0  0  0  0  0  0
  -19.2290  -18.4890   41.4590 H   0  0  0  0  0  0  0  0  0  0  0  0
  -19.4080  -17.4060   39.1780 H   0  0  0  0  0  0  0  0  0  0  0  0
  -17.3100  -16.8330   37.8810 H   0  0  0  0  0  0  0  0  0  0  0  0
  -13.0870  -14.6720   33.3350 C   0  0  0  0  0  0  0  0  0  0  0  0
  -11.6110  -14.5000   33.1300 C   0  0  0  0  0  0  0  0  0  0  0  0
  -10.6490  -14.9640   34.1830 C   0  0  0  0  0  0  0  0  0  0  0  0
  -11.1620  -15.6000   35.4400 C   0  0  0  0  0  0  0  0  0  0  0  0
  -12.6380  -15.7720   35.6450 C   0  0  0  0  0  0  0  0  0  0  0  0
  -13.6010  -15.3080   34.5920 C   0  0  0  0  0  0  0  0  0  0  0  0
  -11.2580  -14.0620   32.2650 H   0  0  0  0  0  0  0  0  0  0  0  0
   -9.6330  -14.8460   34.0420 H   0  0  0  0  0  0  0  0  0  0  0  0
  -10.5000  -15.9200   36.1650 H   0  0  0  0  0  0  0  0  0  0  0  0
  -14.6160  -15.4260   34.7330 H   0  0  0  0  0  0  0  0  0  0  0  0
  -14.0490  -14.2070   32.2820 O   0  0  0  0  0  0  0  0  0  0  0  0
  -13.7290  -13.8100   31.4970 H   0  0  0  0  0  0  0  0  0  0  0  0
  -10.8180  -17.1110   37.9990 C   0  0  0  0  0  0  0  0  0  0  0  0
  -10.0160  -16.1250   38.7950 C   0  0  0  0  0  0  0  0  0  0  0  0
   -8.5190  -16.2120   38.8110 C   0  0  0  0  0  0  0  0  0  0  0  0
   -7.8230  -17.2860   38.0280 N   0  0  0  0  0  0  0  0  0  0  0  0
   -8.6240  -18.2730   37.2310 C   0  0  0  0  0  0  0  0  0  0  0  0
  -10.1210  -18.1860   37.2170 C   0  0  0  0  0  0  0  0  0  0  0  0
  -10.4960  -15.3860   39.3340 H   0  0  0  0  0  0  0  0  0  0  0  0
   -7.9680  -15.5330   39.3590 H   0  0  0  0  0  0  0  0  0  0  0  0
   -8.1450  -19.0110   36.6930 H   0  0  0  0  0  0  0  0  0  0  0  0
  -10.6730  -18.8640   36.6680 H   0  0  0  0  0  0  0  0  0  0  0  0
  1  2  1  0
  1  5  2  0
  2  3  2  0
  3  4  1  0
  3  7  1  0
  4  6  1  0
  5 30  1  0
  5  4  1  0
  7  8  1  0
  8 13  1  0
  8  9  2  0
  9 14  1  0
 10 15  1  0
 10  9  1  0
 11 10  2  0
 12  7  2  0
 12 11  1  0
 16 11  1  0
 17 12  1  0
 18 23  1  0
 19 18  2  0
 19 20  1  0
 20 21  2  0
 21 22  1  0
 21 26  1  0
 22  1  1  0
 23 27  1  0
 23 22  2  0
 24 19  1  0
 25 20  1  0
 28 18  1  0
 29 28  1  0
 30 31  1  0
 31 32  2  0
 31 36  1  0
 32 37  1  0
 33 32  1  0
 34 33  2  0
 35 34  1  0
 35 30  2  0
 38 34  1  0
 39 35  1  0
M  END
>  <minimizedAffinity>  (30) 
-9.39935207

$$$$

     RDKit          3D

 72 73  0  0  0  0  0  0  0  0999 V2000
  -13.2320  -16.5870   37.4290 C   0  0  0  0  0  0  0  0  0  0  0  0
  -11.8540  -17.1780   37.3920 C   0  0  0  0  0  0  0  0  0  0  0  0
  -10.9120  -16.8160   36.2830 C   0  0  0  0  0  0  0  0  0  0  0  0
  -11.3470  -15.8610   35.2110 C   0  0  0  0  0  0  0  0  0  0  0  0
  -10.4050  -15.4990   34.1020 N   0  0  0  0  0  0  0  0  0  0  0  0
  -10.8400  -14.5450   33.0290 C   0  0  0  0  0  0  0  0  0  0  0  0
  -12.2180  -13.9530   33.0660 N   0  0  0  0  0  0  0  0  0  0  0  0
  -13.1610  -14.3160   34.1750 C   0  0  0  0  0  0  0  0  0  0  0  0
  -14.5390  -13.7240   34.2120 N   0  0  0  0  0  0  0  0  0  0  0  0
  -12.7250  -15.2700   35.2480 C   0  0  0  0  0  0  0  0  0  0  0  0
  -13.6680  -15.6320   36.3570 C   0  0  0  0  0  0  0  0  0  0  0  0
  -11.5550  -17.8350   38.1300 H   0  0  0  0  0  0  0  0  0  0  0  0
   -9.9640  -17.2230   36.2580 H   0  0  0  0  0  0  0  0  0  0  0  0
  -10.1920  -14.2950   32.2660 H   0  0  0  0  0  0  0  0  0  0  0  0
  -15.1580  -13.9620   34.9400 H   0  0  0  0  0  0  0  0  0  0  0  0
  -14.6160  -15.2250   36.3820 H   0  0  0  0  0  0  0  0  0  0  0  0
  -14.9740  -12.7700   33.1400 C   0  0  0  0  0  0  0  0  0  0  0  0
  -14.4640  -12.9330   31.7390 C   0  0  0  0  0  0  0  0  0  0  0  0
  -14.9000  -11.9780   30.6670 C   0  0  0  0  0  0  0  0  0  0  0  0
  -15.8450  -10.8610   30.9950 C   0  0  0  0  0  0  0  0  0  0  0  0
  -16.3550  -10.6980   32.3970 C   0  0  0  0  0  0  0  0  0  0  0  0
  -17.3000   -9.5810   32.7260 Cl  0  0  0  0  0  0  0  0  0  0  0  0
  -15.9190  -11.6520   33.4690 C   0  0  0  0  0  0  0  0  0  0  0  0
  -13.8140  -13.7010   31.5120 H   0  0  0  0  0  0  0  0  0  0  0  0
  -14.5490  -12.0910   29.7020 H   0  0  0  0  0  0  0  0  0  0  0  0
  -16.2700  -11.5400   34.4330 H   0  0  0  0  0  0  0  0  0  0  0  0
  -16.2800   -9.9070   29.9230 O   0  0  0  0  0  0  0  0  0  0  0  0
  -17.6670   -9.9950   29.3580 C   0  0  0  0  0  0  0  0  0  0  0  0
  -18.2270   -9.1030   29.1720 H   0  0  0  0  0  0  0  0  0  0  0  0
  -18.6570  -10.0580   28.9550 H   0  0  0  0  0  0  0  0  0  0  0  0
  -18.2690  -11.3350   29.0550 C   0  0  0  0  0  0  0  0  0  0  0  0
  -18.4100  -11.7900   27.6320 C   0  0  0  0  0  0  0  0  0  0  0  0
  -19.0120  -13.1290   27.3290 C   0  0  0  0  0  0  0  0  0  0  0  0
  -19.4730  -14.0150   28.4480 C   0  0  0  0  0  0  0  0  0  0  0  0
  -19.3330  -13.5610   29.8700 C   0  0  0  0  0  0  0  0  0  0  0  0
  -19.7950  -14.4470   30.9890 F   0  0  0  0  0  0  0  0  0  0  0  0
  -18.7310  -12.2210   30.1740 C   0  0  0  0  0  0  0  0  0  0  0  0
  -18.0920  -11.1800   26.8620 H   0  0  0  0  0  0  0  0  0  0  0  0
  -19.1080  -13.4420   26.3500 H   0  0  0  0  0  0  0  0  0  0  0  0
  -19.8880  -14.9370   28.2390 H   0  0  0  0  0  0  0  0  0  0  0  0
  -18.6340  -11.9080   31.1530 H   0  0  0  0  0  0  0  0  0  0  0  0
  -15.6510  -16.7880   40.4580 C   0  0  0  0  0  1  0  0  0  0  0  0
  -15.5990  -18.2260   40.0330 C   0  0  0  0  0  2  0  0  0  0  0  0
  -14.6860  -18.3250   38.8460 C   0  0  0  0  0  0  0  0  0  0  0  0
  -14.1750  -16.9490   38.5380 C   0  0  0  0  0  0  0  0  0  0  0  0
  -14.7710  -15.9990   39.5350 O   0  0  0  0  0  0  0  0  0  0  0  0
  -16.1020  -19.0090   40.4780 H   0  0  0  0  0  0  0  0  0  0  0  0
  -14.4510  -19.1890   38.3320 H   0  0  0  0  0  0  0  0  0  0  0  0
  -16.4450  -16.2370   41.6050 C   0  0  0  0  0  3  0  0  0  0  0  0
  -15.9560  -15.9920   42.5250 H   0  0  0  0  0  0  0  0  0  0  0  0
  -15.3900  -16.3860   41.7060 H   0  0  0  0  0  0  0  0  0  0  0  0
  -17.9230  -16.0280   41.4630 O   0  0  0  0  0  1  0  0  0  0  0  0
  -18.6290  -16.4810   40.2200 C   0  0  0  0  0  2  0  0  0  0  0  0
  -18.3010  -17.3630   39.7090 H   0  0  0  0  0  0  0  0  0  0  0  0
  -17.7980  -17.0400   40.5970 H   0  0  0  0  0  0  0  0  0  0  0  0
  -19.7940  -15.6980   39.6900 C   0  0  0  0  0  3  0  0  0  0  0  0
  -20.7530  -15.7850   40.1580 H   0  0  0  0  0  0  0  0  0  0  0  0
  -19.9220  -16.3430   40.5350 H   0  0  0  0  0  0  0  0  0  0  0  0
  -19.4370  -13.6250   39.4270 O   0  0  0  0  0  0  0  0  0  0  0  0
  -19.6150  -14.7950   38.5070 S   0  0  1  0  0  0  0  0  0  0  0  0
  -19.7940  -15.9660   37.5870 O   0  0  0  0  0  0  0  0  0  0  0  0
  -19.4370  -13.8920   37.3230 C   0  0  0  0  0  0  0  0  0  0  0  0
  -19.3610  -12.4060   37.5170 C   0  0  0  0  0  0  0  0  0  0  0  0
  -19.1830  -11.5030   36.3330 C   0  0  0  0  0  0  0  0  0  0  0  0
  -19.0790  -12.0860   34.9540 C   0  0  0  0  0  0  0  0  0  0  0  0
  -19.1540  -13.5710   34.7600 C   0  0  0  0  0  0  0  0  0  0  0  0
  -19.3330  -14.4740   35.9440 C   0  0  0  0  0  0  0  0  0  0  0  0
  -19.4330  -12.0070   38.4660 H   0  0  0  0  0  0  0  0  0  0  0  0
  -19.1310  -10.4820   36.4670 H   0  0  0  0  0  0  0  0  0  0  0  0
  -18.9560  -11.4640   34.1400 H   0  0  0  0  0  0  0  0  0  0  0  0
  -19.0830  -13.9710   33.8120 H   0  0  0  0  0  0  0  0  0  0  0  0
  -19.3850  -15.4960   35.8100 H   0  0  0  0  0  0  0  0  0  0  0  0
  1 45  1  0
  2  1  1  0
  2 12  1  0
  3  2  2  0
  4 10  2  0
  4  3  1  0
  5  4  1  0
  6  7  1  0
  6  5  2  0
  7  8  2  0
  8  9  1  0
  8 10  1  0
  9 15  1  0
 10 11  1  0
 11 16  1  0
 11  1  2  0
 13  3  1  0
 14  6  1  0
 17 23  1  0
 17  9  1  0
 18 17  2  0
 19 20  2  0
 19 18  1  0
 20 21  1  0
 21 22  1  0
 21 23  2  0
 23 26  1  0
 24 18  1  0
 25 19  1  0
 27 20  1  0
 28 27  1  0
 29 28  1  0
 30 28  1  0
 31 28  1  0
 31 37  1  0
 32 31  2  0
 33 32  1  0
 33 34  2  0
 34 35  1  0
 35 37  2  0
 35 36  1  0
 37 41  1  0
 38 32  1  0
 39 33  1  0
 40 34  1  0
 43 47  1  0
 44 43  1  0
 45 44  2  0
 45 46  1  0
 46 42  1  0
 48 44  1  0
 49 51  1  0
 49 50  1  0
 52 49  1  0
 53 55  1  0
 54 53  1  0
 56 57  1  0
 56 58  1  0
 60 59  2  0
 60 56  1  0
 61 60  2  0
 62 63  1  0
 62 60  1  0
 63 68  1  0
 64 69  1  0
 64 63  2  0
 65 64  1  0
 66 65  2  0
 66 67  1  0
 67 62  2  0
 70 65  1  0
 71 66  1  0
 72 67  1  0
M  END
>  <minimizedAffinity>  (31) 
-8.95835781

$$$$

     RDKit          3D

 55 50  0  0  0  0  0  0  0  0999 V2000
  -16.2250  -15.5960   36.3680 N   0  0  0  0  0 15  0  0  0  0  0  0
  -15.7000  -16.4160   37.5090 C   0  0  0  0  0  2  0  0  0  0  0  0
  -14.2050  -16.4650   37.3970 N   0  0  0  0  0  2  0  0  0  0  0  0
  -13.8050  -15.6750   36.1860 C   0  0  0  0  0  0  0  0  0  0  0  0
  -12.4670  -15.3750   35.5800 C   0  0  0  0  0  0  0  0  0  0  0  0
  -12.3760  -14.5380   34.3380 N   0  0  0  0  0  0  0  0  0  0  0  0
  -13.6240  -14.0010   33.7020 C   0  0  0  0  0  0  0  0  0  0  0  0
  -14.9630  -14.3010   34.3080 C   0  0  0  0  0  0  0  0  0  0  0  0
  -15.0540  -15.1380   35.5500 C   0  0  0  0  0  3  0  0  0  0  0  0
  -13.5610  -13.4250   32.8480 H   0  0  0  0  0  0  0  0  0  0  0  0
  -16.5250  -17.0720   38.5760 C   0  0  0  0  0  0  0  0  0  0  0  0
  -17.9690  -17.4650   38.4570 N   0  0  0  0  0  0  0  0  0  0  0  0
  -18.3880  -18.0870   39.7570 O   0  0  0  0  0  0  0  0  0  0  0  0
  -17.2040  -18.0780   40.6780 N   0  0  0  0  0  0  0  0  0  0  0  0
  -16.0530  -17.4510   39.9490 C   0  0  0  0  0  0  0  0  0  0  0  0
  -14.6730  -17.2390   40.4960 N   0  0  0  0  0  0  0  0  0  0  0  0
  -13.9810  -16.8170   39.9370 H   0  0  0  0  0  0  0  0  0  0  0  0
  -14.4580  -17.5230   41.4130 H   0  0  0  0  0  0  0  0  0  0  0  0
  -17.6660  -15.2880   36.0930 C   0  0  0  0  0  3  0  0  0  0  0  0
  -18.2280  -15.9080   35.4250 H   0  0  0  0  0  0  0  0  0  0  0  0
  -17.1990  -16.1270   35.6210 H   0  0  0  0  0  0  0  0  0  0  0  0
  -18.3220  -14.1120   36.7530 C   0  0  0  0  0  0  0  0  0  0  0  0
  -17.7610  -13.4930   37.4220 H   0  0  0  0  0  0  0  0  0  0  0  0
  -19.3500  -13.8930   36.5570 H   0  0  0  0  0  0  0  0  0  0  0  0
  -18.7900  -13.2730   37.2250 H   0  0  0  0  0  0  0  0  0  0  0  0
  -11.2180  -15.9110   36.2150 C   0  0  0  0  0  0  0  0  0  0  0  0
   -9.9700  -16.4480   36.8510 C   0  0  0  0  0  0  0  0  0  0  0  0
   -8.7220  -16.9850   37.4870 C   0  0  0  0  0  0  0  0  0  0  0  0
   -8.3570  -15.6020   37.9380 C   0  0  0  0  0  0  0  0  0  0  0  0
   -8.9990  -14.7770   37.7060 H   0  0  0  0  0  0  0  0  0  0  0  0
   -7.4560  -15.4400   38.4920 H   0  0  0  0  0  0  0  0  0  0  0  0
   -8.0970  -14.6150   38.2600 H   0  0  0  0  0  0  0  0  0  0  0  0
   -9.0870  -18.3680   37.0350 C   0  0  0  0  0  0  0  0  0  0  0  0
   -8.4460  -19.1930   37.2670 H   0  0  0  0  0  0  0  0  0  0  0  0
   -9.9890  -18.5300   36.4810 H   0  0  0  0  0  0  0  0  0  0  0  0
   -9.3470  -19.3550   36.7130 H   0  0  0  0  0  0  0  0  0  0  0  0
   -7.4740  -17.5220   38.1230 O   0  0  0  0  0  0  0  0  0  0  0  0
   -6.8660  -16.9210   38.5810 H   0  0  0  0  0  0  0  0  0  0  0  0
  -16.2110  -13.7640   33.6720 O   0  0  0  0  0  0  0  0  0  0  0  0
  -16.1160  -12.7410   32.5800 C   0  0  0  0  0  2  0  0  0  0  0  0
  -16.0790  -11.2810   32.9210 C   0  0  0  0  0  2  0  0  0  0  0  0
  -15.9840  -10.2570   31.8290 C   0  0  0  0  0  2  0  0  0  0  0  0
  -15.9250  -10.6940   30.3950 N   0  0  0  0  0  2  0  0  0  0  0  0
  -15.9610  -12.1540   30.0540 C   0  0  0  0  0  3  0  0  0  0  0  0
  -16.0570  -13.1780   31.1460 C   0  0  0  0  0  2  0  0  0  0  0  0
  -16.0480  -12.0110   31.8010 H   0  0  0  0  0  0  0  0  0  0  0  0
  -16.1210  -10.9690   33.9440 H   0  0  0  0  0  0  0  0  0  0  0  0
  -16.0530  -10.2390   33.1650 H   0  0  0  0  0  0  0  0  0  0  0  0
  -15.9580   -9.2150   32.0720 H   0  0  0  0  0  0  0  0  0  0  0  0
  -15.9160   -9.5270   31.0490 H   0  0  0  0  0  0  0  0  0  0  0  0
  -15.8600   -9.9990   29.6520 H   0  0  0  0  0  0  0  0  0  0  0  0
  -15.9190  -12.4660   29.0310 H   0  0  0  0  0  0  0  0  0  0  0  0
  -15.9870  -13.1960   29.8100 H   0  0  0  0  0  0  0  0  0  0  0  0
  -16.0830  -14.2200   30.9030 H   0  0  0  0  0  0  0  0  0  0  0  0
  -16.1250  -13.9080   31.9260 H   0  0  0  0  0  0  0  0  0  0  0  0
  2 11  1  0
  3  2  1  0
  4  3  1  0
  5  4  1  0
  5 26  1  0
  6  5  2  0
  7  8  2  0
  7  6  1  0
  8  9  1  0
  9  4  2  0
 10  7  1  0
 11 15  1  0
 12 11  2  0
 12 13  1  0
 13 14  1  0
 15 16  1  0
 15 14  2  0
 16 18  1  0
 17 16  1  0
 19 22  1  0
 20 19  1  0
 21 19  1  0
 22 25  1  0
 22 23  1  0
 24 22  1  0
 26 27  3  0
 27 28  1  0
 28 29  1  0
 28 37  1  0
 29 32  1  0
 29 31  1  0
 30 29  1  0
 33 34  1  0
 33 28  1  0
 35 33  1  0
 36 33  1  0
 37 38  1  0
 39  8  1  0
 40 39  1  0
 41 48  1  0
 41 47  1  0
 42 49  1  0
 44 43  1  0
 45 55  1  0
 46 40  1  0
 50 42  1  0
 51 43  1  0
 52 44  1  0
 53 44  1  0
 54 45  1  0
M  END
>  <minimizedAffinity>  (32) 
-9.59228325

$$$$

     RDKit          3D

 56 54  0  0  0  0  0  0  0  0999 V2000
  -11.6500  -15.7500   35.1300 C   0  0  0  0  0  0  0  0  0  0  0  0
  -10.4940  -15.7450   34.1730 N   0  0  0  0  0  0  0  0  0  0  0  0
   -9.3080  -16.3320   34.8770 C   0  0  0  0  0  0  0  0  0  0  0  0
   -9.7290  -16.7000   36.2690 N   0  0  0  0  0  0  0  0  0  0  0  0
  -11.1770  -16.3410   36.4250 C   0  0  0  0  0  0  0  0  0  0  0  0
   -8.3660  -16.4600   34.4740 H   0  0  0  0  0  0  0  0  0  0  0  0
   -8.8560  -17.3190   37.3200 C   0  0  0  0  0  2  0  0  0  0  0  0
   -7.9440  -16.4570   38.1400 C   0  0  0  0  0  2  0  0  0  0  0  0
   -7.0710  -17.0760   39.1910 C   0  0  0  0  0  2  0  0  0  0  0  0
   -7.1100  -18.5570   39.4220 N   0  0  0  0  0  1  0  0  0  0  0  0
   -8.0220  -19.4200   38.6010 C   0  0  0  0  0  2  0  0  0  0  0  0
   -8.8950  -18.8010   37.5500 C   0  0  0  0  0  2  0  0  0  0  0  0
   -8.2330  -17.7600   38.0700 H   0  0  0  0  0  0  0  0  0  0  0  0
   -7.9150  -15.4000   37.9760 H   0  0  0  0  0  0  0  0  0  0  0  0
   -7.2930  -15.8410   38.7260 H   0  0  0  0  0  0  0  0  0  0  0  0
   -6.4200  -16.4600   39.7770 H   0  0  0  0  0  0  0  0  0  0  0  0
   -6.4480  -17.5170   39.9410 H   0  0  0  0  0  0  0  0  0  0  0  0
   -6.5160  -18.9780   40.1370 H   0  0  0  0  0  0  0  0  0  0  0  0
   -8.0500  -20.4770   38.7650 H   0  0  0  0  0  0  0  0  0  0  0  0
   -8.6730  -20.0350   38.0160 H   0  0  0  0  0  0  0  0  0  0  0  0
   -9.5460  -19.4170   36.9650 H   0  0  0  0  0  0  0  0  0  0  0  0
   -9.5180  -18.3590   36.8000 H   0  0  0  0  0  0  0  0  0  0  0  0
  -17.1920  -13.7600   33.9780 F   0  0  0  0  0  0  0  0  0  0  0  0
  -15.8060  -14.2580   34.2660 C   0  0  0  0  0  0  0  0  0  0  0  0
  -14.6180  -13.5340   33.7060 C   0  0  0  0  0  0  0  0  0  0  0  0
  -13.2330  -14.0310   33.9940 C   0  0  0  0  0  0  0  0  0  0  0  0
  -13.0360  -15.2530   34.8420 C   0  0  0  0  0  0  0  0  0  0  0  0
  -14.2240  -15.9770   35.4010 C   0  0  0  0  0  0  0  0  0  0  0  0
  -15.6090  -15.4790   35.1130 C   0  0  0  0  0  0  0  0  0  0  0  0
  -14.7530  -12.6930   33.1230 H   0  0  0  0  0  0  0  0  0  0  0  0
  -12.4150  -13.5330   33.6090 H   0  0  0  0  0  0  0  0  0  0  0  0
  -14.0890  -16.8180   35.9850 H   0  0  0  0  0  0  0  0  0  0  0  0
  -16.4270  -15.9780   35.4990 H   0  0  0  0  0  0  0  0  0  0  0  0
  -12.0060  -16.5370   37.6590 C   0  0  0  0  0  0  0  0  0  0  0  0
  -11.5360  -15.9900   38.9740 C   0  0  0  0  0  0  0  0  0  0  0  0
  -12.3660  -16.1870   40.2090 C   0  0  0  0  0  3  0  0  0  0  0  0
  -13.6660  -16.9300   40.1270 N   0  0  0  0  0  0  0  0  0  0  0  0
  -14.1360  -17.4760   38.8120 C   0  0  0  0  0  0  0  0  0  0  0  0
  -13.3070  -17.2800   37.5780 N   0  0  0  0  0  0  0  0  0  0  0  0
  -10.6410  -15.4790   39.0310 H   0  0  0  0  0  0  0  0  0  0  0  0
  -12.0420  -15.8100   41.1130 H   0  0  0  0  0  0  0  0  0  0  0  0
  -15.4370  -18.2200   38.7310 O   0  0  0  0  0  0  0  0  0  0  0  0
  -16.7340  -17.4770   38.8600 C   0  0  0  0  0  0  0  0  0  0  0  0
  -17.7050  -17.8460   39.9430 C   0  0  0  0  0  0  0  0  0  0  0  0
  -19.0010  -17.1030   40.0720 C   0  0  0  0  0  0  0  0  0  0  0  0
  -19.3280  -15.9920   39.1190 C   0  0  0  0  0  0  0  0  0  0  0  0
  -18.3570  -15.6240   38.0350 C   0  0  0  0  0  0  0  0  0  0  0  0
  -17.0600  -16.3670   37.9070 C   0  0  0  0  0  0  0  0  0  0  0  0
  -17.4800  -18.6100   40.5980 H   0  0  0  0  0  0  0  0  0  0  0  0
  -19.6690  -17.3570   40.8170 H   0  0  0  0  0  0  0  0  0  0  0  0
  -20.2200  -15.4820   39.2070 H   0  0  0  0  0  0  0  0  0  0  0  0
  -16.3930  -16.1130   37.1610 H   0  0  0  0  0  0  0  0  0  0  0  0
  -18.6840  -14.5130   37.0820 C   0  0  0  0  0  0  0  0  0  0  0  0
  -19.0110  -13.4010   36.1300 F   0  0  0  0  0  0  0  0  0  0  0  0
  -18.9370  -15.5170   35.9980 F   0  0  0  0  0  0  0  0  0  0  0  0
  -18.4310  -13.5080   38.1670 F   0  0  0  0  0  0  0  0  0  0  0  0
  1  5  2  0
  2  3  2  0
  2  1  1  0
  3  4  1  0
  4  5  1  0
  4  7  1  0
  5 34  1  0
  6  3  1  0
  7 13  1  0
  8 15  1  0
  9 16  1  0
  9 17  1  0
 10 18  1  0
 11 19  1  0
 14  8  1  0
 20 11  1  0
 21 12  1  0
 22 12  1  0
 23 24  1  0
 24 29  1  0
 25 26  1  0
 25 24  2  0
 26 27  2  0
 27  1  1  0
 27 28  1  0
 28 32  1  0
 29 28  2  0
 29 33  1  0
 30 25  1  0
 31 26  1  0
 34 35  2  0
 35 40  1  0
 35 36  1  0
 36 41  1  0
 37 36  1  0
 38 37  2  0
 39 34  1  0
 39 38  2  0
 42 38  1  0
 42 43  1  0
 43 44  1  0
 44 45  2  0
 44 49  1  0
 45 50  1  0
 46 51  1  0
 46 45  1  0
 47 46  2  0
 48 47  1  0
 48 43  2  0
 52 48  1  0
 53 47  1  0
 53 56  1  0
 54 53  1  0
 55 53  1  0
M  END
>  <minimizedAffinity>  (33) 
-9.56219387

$$$$

     RDKit          3D

 50 49  0  0  0  0  0  0  0  0999 V2000
  -15.4450  -12.6260   32.2310 C   0  0  0  0  0  0  0  0  0  0  0  0
  -14.0140  -13.0560   32.3630 N   0  0  0  0  0  0  0  0  0  0  0  0
  -13.9200  -14.0180   33.5090 C   0  0  0  0  0  0  0  0  0  0  0  0
  -15.2950  -14.1840   34.0870 N   0  0  0  0  0  0  0  0  0  0  0  0
  -15.8100  -15.0070   35.2310 N   0  0  0  0  0  0  0  0  0  0  0  0
  -17.2670  -14.9700   35.5850 C   0  0  0  0  0  0  0  0  0  0  0  0
  -17.7830  -15.7930   36.7280 N   0  0  0  0  0  0  0  0  0  0  0  0
  -18.2090  -14.1100   34.7950 N   0  0  0  0  0  0  0  0  0  0  0  0
  -17.6940  -13.2870   33.6520 C   0  0  0  0  0  0  0  0  0  0  0  0
  -16.2370  -13.3240   33.2980 C   0  0  0  0  0  0  0  0  0  0  0  0
  -18.7390  -15.7690   36.9610 H   0  0  0  0  0  0  0  0  0  0  0  0
  -18.3420  -12.6950   33.1090 H   0  0  0  0  0  0  0  0  0  0  0  0
  -12.6730  -14.6960   33.9930 C   0  0  0  0  0  0  0  0  0  0  0  0
  -11.6560  -15.1870   33.0060 C   0  0  0  0  0  0  0  0  0  0  0  0
  -10.4080  -15.8650   33.4900 C   0  0  0  0  0  0  0  0  0  0  0  0
  -10.1780  -16.0510   34.9600 C   0  0  0  0  0  0  0  0  0  0  0  0
  -11.1950  -15.5590   35.9470 C   0  0  0  0  0  0  0  0  0  0  0  0
  -12.4420  -14.8820   35.4630 C   0  0  0  0  0  0  0  0  0  0  0  0
  -11.8150  -15.0590   31.9940 H   0  0  0  0  0  0  0  0  0  0  0  0
   -9.7090  -16.2040   32.8110 H   0  0  0  0  0  0  0  0  0  0  0  0
   -9.3190  -16.5180   35.2930 H   0  0  0  0  0  0  0  0  0  0  0  0
  -11.0370  -15.6870   36.9590 H   0  0  0  0  0  0  0  0  0  0  0  0
  -13.1420  -14.5430   36.1420 H   0  0  0  0  0  0  0  0  0  0  0  0
  -15.9890  -11.6690   31.2140 C   0  0  0  0  0  0  0  0  0  0  0  0
  -17.0320  -11.4290   31.2080 H   0  0  0  0  0  0  0  0  0  0  0  0
  -15.3340  -11.2240   30.4930 H   0  0  0  0  0  0  0  0  0  0  0  0
  -16.3770  -10.9850   30.4880 H   0  0  0  0  0  0  0  0  0  0  0  0
  -16.8410  -16.6530   37.5170 C   0  0  0  0  0  0  0  0  0  0  0  0
  -16.4380  -17.5440   37.0830 H   0  0  0  0  0  0  0  0  0  0  0  0
  -16.1690  -17.2660   38.0810 H   0  0  0  0  0  0  0  0  0  0  0  0
  -16.4630  -16.2640   38.9160 C   0  0  0  0  0  0  0  0  0  0  0  0
  -16.8390  -15.3550   39.3390 H   0  0  0  0  0  0  0  0  0  0  0  0
  -16.1940  -15.9860   39.9140 H   0  0  0  0  0  0  0  0  0  0  0  0
  -15.5590  -17.1480   39.7220 C   0  0  0  0  0  0  0  0  0  0  0  0
  -15.9190  -18.0840   40.0950 H   0  0  0  0  0  0  0  0  0  0  0  0
  -14.9140  -17.7790   40.2980 H   0  0  0  0  0  0  0  0  0  0  0  0
  -14.1500  -16.7200   40.0070 N   0  0  0  0  0  2  0  0  0  0  0  0
  -13.8300  -15.9870   41.2760 C   0  0  0  0  0  3  0  0  0  0  0  0
  -12.4210  -15.5590   41.5600 C   0  0  0  0  0  2  0  0  0  0  0  0
  -11.3320  -15.8640   40.5750 O   0  0  0  0  0  1  0  0  0  0  0  0
  -11.6510  -16.5960   39.3060 C   0  0  0  0  0  3  0  0  0  0  0  0
  -13.0600  -17.0250   39.0220 C   0  0  0  0  0  2  0  0  0  0  0  0
  -14.6070  -15.7690   41.9780 H   0  0  0  0  0  0  0  0  0  0  0  0
  -13.6020  -15.4640   42.1810 H   0  0  0  0  0  0  0  0  0  0  0  0
  -12.1930  -15.0360   42.4660 H   0  0  0  0  0  0  0  0  0  0  0  0
  -11.4150  -15.2530   41.7630 H   0  0  0  0  0  0  0  0  0  0  0  0
  -10.8740  -16.8140   38.6040 H   0  0  0  0  0  0  0  0  0  0  0  0
  -11.8790  -17.1190   38.4010 H   0  0  0  0  0  0  0  0  0  0  0  0
  -13.2880  -17.5470   38.1170 H   0  0  0  0  0  0  0  0  0  0  0  0
  -14.0650  -17.3300   38.8190 H   0  0  0  0  0  0  0  0  0  0  0  0
  1  2  1  0
  1 10  2  0
  2  3  2  0
  3 13  1  0
  3  4  1  0
  4  5  1  0
  5  6  2  0
  6  7  1  0
  7 11  1  0
  7 28  1  0
  8  6  1  0
  9  8  2  0
 10  9  1  0
 10  4  1  0
 12  9  1  0
 13 18  1  0
 14 15  1  0
 14 13  2  0
 15 16  2  0
 16 21  1  0
 16 17  1  0
 17 22  1  0
 18 17  2  0
 18 23  1  0
 19 14  1  0
 20 15  1  0
 24  1  1  0
 25 24  1  0
 26 24  1  0
 27 24  1  0
 28 30  1  0
 28 31  1  0
 29 28  1  0
 31 32  1  0
 31 34  1  0
 31 33  1  0
 34 37  1  0
 34 35  1  0
 34 36  1  0
 37 38  1  0
 38 43  1  0
 38 44  1  0
 39 46  1  0
 39 45  1  0
 41 40  1  0
 47 41  1  0
 48 41  1  0
 49 42  1  0
 50 42  1  0
M  END
>  <minimizedAffinity>  (34) 
-10.2698097

$$$$

     RDKit          3D

 38 39  0  0  0  0  0  0  0  0999 V2000
  -14.0200  -14.0350   34.4510 C   0  0  0  0  0  0  0  0  0  0  0  0
  -13.6530  -15.4750   34.6560 C   0  0  0  0  0  0  0  0  0  0  0  0
  -13.6940  -13.3190   35.1190 H   0  0  0  0  0  0  0  0  0  0  0  0
  -13.9790  -16.1900   33.9870 H   0  0  0  0  0  0  0  0  0  0  0  0
  -17.1990  -13.2520   32.2080 C   0  0  0  0  0  0  0  0  0  0  0  0
  -16.5440  -12.8360   30.9240 C   0  0  0  0  0  0  0  0  0  0  0  0
  -15.0480  -12.8210   30.8150 N   0  0  0  0  0  0  0  0  0  0  0  0
  -14.2070  -13.2200   31.9910 C   0  0  0  0  0  0  0  0  0  0  0  0
  -14.8610  -13.6350   33.2750 C   0  0  0  0  0  0  0  0  0  0  0  0
  -16.3570  -13.6510   33.3840 C   0  0  0  0  0  0  0  0  0  0  0  0
  -17.1230  -12.5620   30.1150 H   0  0  0  0  0  0  0  0  0  0  0  0
  -13.1780  -13.2100   31.9160 H   0  0  0  0  0  0  0  0  0  0  0  0
  -16.8080  -13.9370   34.2670 H   0  0  0  0  0  0  0  0  0  0  0  0
  -18.6950  -13.2670   32.3160 C   0  0  0  0  0  0  0  0  0  0  0  0
  -19.4500  -11.9790   32.4620 O   0  0  0  0  0  0  0  0  0  0  0  0
  -19.4360  -14.5710   32.2800 O   0  0  0  0  0  0  0  0  0  0  0  0
  -19.7950  -15.2660   33.5600 C   0  0  0  0  0  0  0  0  0  0  0  0
  -20.3230  -16.1960   33.5330 H   0  0  0  0  0  0  0  0  0  0  0  0
  -19.5220  -14.8320   34.4990 H   0  0  0  0  0  0  0  0  0  0  0  0
  -20.0500  -15.7620   34.4730 H   0  0  0  0  0  0  0  0  0  0  0  0
  -12.8110  -15.8740   35.8310 C   0  0  0  0  0  0  0  0  0  0  0  0
  -13.4650  -16.3590   37.0910 C   0  0  0  0  0  0  0  0  0  0  0  0
  -12.6230  -16.7590   38.2670 C   0  0  0  0  0  0  0  0  0  0  0  0
  -11.1280  -16.6730   38.1830 C   0  0  0  0  0  0  0  0  0  0  0  0
  -10.4750  -16.1880   36.9230 C   0  0  0  0  0  0  0  0  0  0  0  0
  -11.3160  -15.7890   35.7470 C   0  0  0  0  0  0  0  0  0  0  0  0
  -13.0730  -17.0920   39.1340 H   0  0  0  0  0  0  0  0  0  0  0  0
   -9.4460  -16.1290   36.8650 H   0  0  0  0  0  0  0  0  0  0  0  0
  -14.9600  -16.4450   37.1750 C   0  0  0  0  0  0  0  0  0  0  0  0
  -15.5600  -16.1600   36.3370 H   0  0  0  0  0  0  0  0  0  0  0  0
  -15.4260  -16.7910   38.0740 H   0  0  0  0  0  0  0  0  0  0  0  0
  -16.0270  -16.5060   37.2350 H   0  0  0  0  0  0  0  0  0  0  0  0
  -10.6620  -15.3040   34.4870 C   0  0  0  0  0  0  0  0  0  0  0  0
   -9.5960  -15.2430   34.4270 H   0  0  0  0  0  0  0  0  0  0  0  0
  -11.2620  -15.0190   33.6480 H   0  0  0  0  0  0  0  0  0  0  0  0
  -10.1960  -14.9580   33.5880 H   0  0  0  0  0  0  0  0  0  0  0  0
  -10.2870  -17.0730   39.3580 O   0  0  0  0  0  0  0  0  0  0  0  0
  -10.6960  -17.3760   40.1460 H   0  0  0  0  0  0  0  0  0  0  0  0
  1  2  2  0
  1  3  1  0
  2 21  1  0
  4  2  1  0
  5 14  1  0
  5 10  1  0
  6  5  2  0
  7  6  1  0
  7  8  2  0
  8  9  1  0
  9 10  2  0
  9  1  1  0
 10 13  1  0
 11  6  1  0
 12  8  1  0
 14 15  2  0
 16 14  1  0
 16 17  1  0
 17 20  1  0
 17 19  1  0
 18 17  1  0
 21 22  1  0
 22 29  1  0
 22 23  2  0
 23 27  1  0
 24 23  1  0
 24 37  1  0
 25 24  2  0
 26 21  2  0
 26 25  1  0
 28 25  1  0
 29 32  1  0
 29 31  1  0
 30 29  1  0
 33 26  1  0
 34 33  1  0
 35 33  1  0
 36 33  1  0
 37 38  1  0
M  END
>  <minimizedAffinity>  (35) 
-7.89661074

$$$$

     RDKit          3D

 55 54  0  0  1  0  0  0  0  0999 V2000
  -17.3040  -14.4820   34.8390 C   0  0  0  0  0  0  0  0  0  0  0  0
  -18.6600  -14.0980   34.3270 C   0  0  0  0  0  0  0  0  0  0  0  0
  -19.6830  -14.5830   35.3100 N   0  0  0  0  0  0  0  0  0  0  0  0
  -18.9580  -15.2690   36.4310 C   0  0  0  0  0  0  0  0  0  0  0  0
  -17.4880  -15.2070   36.1400 N   0  0  0  0  0  0  0  0  0  0  0  0
  -19.3950  -15.7070   37.2570 H   0  0  0  0  0  0  0  0  0  0  0  0
  -16.3950  -15.7690   36.9980 C   0  0  0  0  0  2  0  0  0  0  0  0
  -16.0680  -17.2320   36.9350 C   0  0  0  0  0  2  0  0  0  0  0  0
  -14.9740  -17.7940   37.7930 C   0  0  0  0  0  2  0  0  0  0  0  0
  -14.2060  -16.8930   38.7140 N   0  0  0  0  0  2  0  0  0  0  0  0
  -14.5320  -15.4310   38.7770 C   0  0  0  0  0  3  0  0  0  0  0  0
  -15.6260  -14.8680   37.9190 C   0  0  0  0  0  2  0  0  0  0  0  0
  -15.6140  -16.1700   37.6100 H   0  0  0  0  0  0  0  0  0  0  0  0
  -16.6160  -17.8740   36.2780 H   0  0  0  0  0  0  0  0  0  0  0  0
  -15.8360  -18.2760   36.8900 H   0  0  0  0  0  0  0  0  0  0  0  0
  -14.7420  -18.8370   37.7480 H   0  0  0  0  0  0  0  0  0  0  0  0
  -14.1940  -18.1950   38.4050 H   0  0  0  0  0  0  0  0  0  0  0  0
  -13.4620  -17.2750   39.2970 H   0  0  0  0  0  0  0  0  0  0  0  0
  -13.9830  -14.7880   39.4340 H   0  0  0  0  0  0  0  0  0  0  0  0
  -14.7640  -14.3870   38.8220 H   0  0  0  0  0  0  0  0  0  0  0  0
  -15.8590  -13.8250   37.9630 H   0  0  0  0  0  0  0  0  0  0  0  0
  -16.4070  -14.4680   37.3060 H   0  0  0  0  0  0  0  0  0  0  0  0
  -18.9440  -13.3560   33.0540 C   0  0  0  0  0  0  0  0  0  0  0  0
  -18.8800  -14.0740   31.7380 C   0  0  0  0  0  0  0  0  0  0  0  0
  -19.1640  -13.3330   30.4650 C   0  0  0  0  0  0  0  0  0  0  0  0
  -19.5110  -11.8740   30.5080 C   0  0  0  0  0  0  0  0  0  0  0  0
  -19.7950  -11.1340   29.2340 F   0  0  0  0  0  0  0  0  0  0  0  0
  -19.5750  -11.1570   31.8240 C   0  0  0  0  0  0  0  0  0  0  0  0
  -19.2920  -11.8980   33.0960 C   0  0  0  0  0  0  0  0  0  0  0  0
  -18.6410  -15.0770   31.7090 H   0  0  0  0  0  0  0  0  0  0  0  0
  -19.1200  -13.8270   29.5600 H   0  0  0  0  0  0  0  0  0  0  0  0
  -19.8140  -10.1530   31.8520 H   0  0  0  0  0  0  0  0  0  0  0  0
  -19.3360  -11.4040   34.0010 H   0  0  0  0  0  0  0  0  0  0  0  0
  -13.6050  -14.9480   33.4780 C   0  0  0  0  0  0  0  0  0  0  0  0
  -13.3730  -13.6170   32.8270 N   0  0  0  0  0  0  0  0  0  0  0  0
  -14.4510  -12.5740   32.8470 C   0  0  0  0  0  0  0  0  0  0  0  0
  -15.7610  -12.8630   33.5170 C   0  0  0  0  0  0  0  0  0  0  0  0
  -15.9940  -14.1940   34.1680 C   0  0  0  0  0  3  0  0  0  0  0  0
  -14.9160  -15.2370   34.1490 N   0  0  0  0  0  0  0  0  0  0  0  0
  -14.2910  -11.6580   32.3990 H   0  0  0  0  0  0  0  0  0  0  0  0
  -16.5030  -12.1450   33.5310 H   0  0  0  0  0  0  0  0  0  0  0  0
  -12.5270  -15.9910   33.4580 O   0  0  0  0  0  0  0  0  0  0  0  0
   -9.6140  -16.2790   36.8750 C   0  0  0  0  0  0  0  0  0  0  0  0
   -9.1330  -16.4460   35.4640 C   0  0  0  0  0  0  0  0  0  0  0  0
  -10.1050  -16.3500   34.3250 C   0  0  0  0  0  0  0  0  0  0  0  0
  -11.5560  -16.0870   34.5970 C   0  0  0  0  0  0  0  0  0  0  0  0
  -12.0360  -15.9200   36.0090 C   0  0  0  0  0  0  0  0  0  0  0  0
  -11.0650  -16.0160   37.1480 C   0  0  0  0  0  0  0  0  0  0  0  0
   -8.1350  -16.6270   35.2770 H   0  0  0  0  0  0  0  0  0  0  0  0
   -9.7740  -16.4650   33.3540 H   0  0  0  0  0  0  0  0  0  0  0  0
  -13.0350  -15.7390   36.1960 H   0  0  0  0  0  0  0  0  0  0  0  0
  -11.3960  -15.9010   38.1190 H   0  0  0  0  0  0  0  0  0  0  0  0
   -7.3320  -15.6490   37.9460 O   0  0  0  0  0  0  0  0  0  0  0  0
   -8.6420  -16.3760   38.0140 C   0  0  0  0  0  0  0  0  0  0  0  0
   -8.9820  -17.1980   39.2220 O   0  0  0  0  0  1  0  0  0  0  0  0
  1  5  1  0
  2  1  2  0
  2  3  1  0
  3  4  2  0
  4  6  1  0
  5  4  1  0
  5  7  1  0
  7 13  1  0
  9 17  1  0
 10 11  1  0
 10 18  1  0
 11 20  1  0
 11 19  1  0
 12 21  1  0
 14  8  1  0
 15  8  1  0
 16  9  1  0
 22 12  1  0
 23 29  1  0
 23  2  1  0
 24 23  2  0
 25 26  2  0
 25 24  1  0
 26 28  1  0
 27 26  1  0
 28 32  1  0
 28 29  2  0
 29 33  1  0
 30 24  1  0
 31 25  1  0
 34 39  2  0
 35 36  1  0
 35 34  2  0
 36 37  2  0
 37 41  1  0
 37 38  1  0
 38  1  1  0
 39 38  1  0
 40 36  1  0
 42 34  1  0
 42 46  1  0
 43 48  1  0
 43 54  1  0
 44 43  2  0
 45 46  2  0
 45 44  1  0
 46 47  1  0
 47 51  1  0
 47 48  2  0
 48 52  1  0
 49 44  1  0
 50 45  1  0
 53 54  2  0
 54 55  1  0
M  END
>  <minimizedAffinity>  (36) 
-8.0506134

$$$$

     RDKit          3D

 36 35  0  0  0  0  0  0  0  0999 V2000
  -16.4630  -14.0750   34.1700 O   0  0  0  0  0  1  0  0  0  0  0  0
  -15.2910  -13.6880   33.3180 C   0  0  0  0  0  2  0  0  0  0  0  0
  -13.9050  -14.1050   33.7130 N   0  0  0  0  0  0  0  0  0  0  0  0
  -13.6920  -14.9100   34.9600 C   0  0  0  0  0  0  0  0  0  0  0  0
  -14.7600  -15.3690   35.9070 N   0  0  0  0  0  0  0  0  0  0  0  0
  -14.1020  -16.1400   37.0120 N   0  0  0  0  0  0  0  0  0  0  0  0
  -12.6250  -16.1580   36.7480 C   0  0  0  0  0  0  0  0  0  0  0  0
  -11.4780  -16.7680   37.4980 C   0  0  0  0  0  0  0  0  0  0  0  0
  -10.0780  -16.6170   36.9810 C   0  0  0  0  0  0  0  0  0  0  0  0
   -9.8250  -15.8570   35.7120 C   0  0  0  0  0  0  0  0  0  0  0  0
  -10.9720  -15.2470   34.9620 C   0  0  0  0  0  0  0  0  0  0  0  0
  -12.3720  -15.3980   35.4800 C   0  0  0  0  0  0  0  0  0  0  0  0
  -13.1360  -13.8510   33.1530 H   0  0  0  0  0  0  0  0  0  0  0  0
  -14.5580  -16.5610   37.7770 H   0  0  0  0  0  0  0  0  0  0  0  0
  -11.6520  -17.2910   38.3710 H   0  0  0  0  0  0  0  0  0  0  0  0
   -8.8620  -15.7540   35.3560 H   0  0  0  0  0  0  0  0  0  0  0  0
  -10.7980  -14.7240   34.0900 H   0  0  0  0  0  0  0  0  0  0  0  0
   -8.9320  -17.2270   37.7310 C   0  0  0  0  0  0  0  0  0  0  0  0
   -8.8560  -18.7150   37.9060 C   0  0  0  0  0  0  0  0  0  0  0  0
   -7.7100  -19.3250   38.6560 C   0  0  0  0  0  0  0  0  0  0  0  0
   -7.6340  -20.8130   38.8310 F   0  0  0  0  0  0  0  0  0  0  0  0
   -6.6380  -18.4470   39.2320 C   0  0  0  0  0  0  0  0  0  0  0  0
   -6.7140  -16.9590   39.0570 C   0  0  0  0  0  0  0  0  0  0  0  0
   -7.8600  -16.3490   38.3070 C   0  0  0  0  0  0  0  0  0  0  0  0
   -7.9360  -14.8610   38.1320 F   0  0  0  0  0  0  0  0  0  0  0  0
   -9.5940  -19.3190   37.5090 H   0  0  0  0  0  0  0  0  0  0  0  0
   -5.8490  -18.8670   39.7480 H   0  0  0  0  0  0  0  0  0  0  0  0
   -5.9760  -16.3550   39.4530 H   0  0  0  0  0  0  0  0  0  0  0  0
  -15.5050  -12.8830   32.0700 C   0  0  0  0  0 15  0  0  0  0  0  0
  -15.7180  -12.8180   30.5870 C   0  0  0  0  0  3  0  0  0  0  0  0
  -15.6620  -11.5540   31.3930 C   0  0  0  0  0  2  0  0  0  0  0  0
  -15.6570  -12.3090   31.1800 H   0  0  0  0  0  0  0  0  0  0  0  0
  -15.8290  -13.3110   29.6440 H   0  0  0  0  0  0  0  0  0  0  0  0
  -15.8550  -12.0290   29.8760 H   0  0  0  0  0  0  0  0  0  0  0  0
  -15.7040  -10.4860   31.4460 H   0  0  0  0  0  0  0  0  0  0  0  0
  -15.5260  -11.3230   32.4280 H   0  0  0  0  0  0  0  0  0  0  0  0
  2  3  1  0
  2  1  1  0
  3  4  1  0
  4 12  1  0
  4  5  2  0
  5  6  1  0
  6 14  1  0
  7  6  1  0
  7  8  1  0
  8 15  1  0
  9  8  2  0
  9 18  1  0
 10  9  1  0
 11 12  1  0
 11 10  2  0
 12  7  2  0
 13  3  1  0
 16 10  1  0
 17 11  1  0
 18 19  2  0
 18 24  1  0
 19 20  1  0
 20 21  1  0
 20 22  2  0
 22 27  1  0
 23 22  1  0
 23 28  1  0
 24 23  2  0
 25 24  1  0
 26 19  1  0
 30 32  1  0
 31 35  1  0
 31 36  1  0
 33 30  1  0
 34 30  1  0
M  END
>  <minimizedAffinity>  (37) 
-9.36385727

$$$$

     RDKit          3D

 28 28  0  0  0  0  0  0  0  0999 V2000
  -10.1310  -16.4070   36.7000 C   0  0  0  0  0  0  0  0  0  0  0  0
   -9.7750  -15.8700   35.3460 N   0  0  0  0  0  0  0  0  0  0  0  0
  -11.0330  -15.3680   34.7020 C   0  0  0  0  0  0  0  0  0  0  0  0
  -11.2930  -14.7330   33.3680 C   0  0  0  0  0  0  0  0  0  0  0  0
  -12.6860  -14.3250   32.9900 N   0  0  0  0  0  0  0  0  0  0  0  0
  -13.8190  -14.5520   33.9460 C   0  0  0  0  0  0  0  0  0  0  0  0
  -13.5590  -15.1870   35.2800 C   0  0  0  0  0  0  0  0  0  0  0  0
  -12.1660  -15.5950   35.6580 C   0  0  0  0  0  0  0  0  0  0  0  0
  -11.6090  -16.2380   36.8940 N   0  0  0  0  0  0  0  0  0  0  0  0
  -10.5130  -14.5760   32.7100 H   0  0  0  0  0  0  0  0  0  0  0  0
  -14.7780  -14.2710   33.6850 H   0  0  0  0  0  0  0  0  0  0  0  0
  -14.3390  -15.3430   35.9370 H   0  0  0  0  0  0  0  0  0  0  0  0
   -7.2340  -15.1780   37.5640 N   0  0  0  0  0  0  0  0  0  0  0  0
   -7.8450  -16.4440   38.0850 C   0  0  0  0  0  0  0  0  0  0  0  0
   -7.2320  -17.3680   39.0960 N   0  0  0  0  0  0  0  0  0  0  0  0
   -8.1840  -18.5040   39.3240 O   0  0  0  0  0  0  0  0  0  0  0  0
   -9.3870  -18.2830   38.4540 N   0  0  0  0  0  0  0  0  0  0  0  0
   -9.1770  -17.0090   37.6890 C   0  0  0  0  0  0  0  0  0  0  0  0
   -7.7160  -14.6360   36.8980 H   0  0  0  0  0  0  0  0  0  0  0  0
   -6.3500  -14.8880   37.8860 H   0  0  0  0  0  0  0  0  0  0  0  0
  -12.3920  -16.6390   38.1070 C   0  0  0  0  0  1  0  0  0  0  0  0
  -13.4660  -17.4710   38.7440 C   0  0  0  0  0  2  0  0  0  0  0  0
  -12.6750  -16.5040   39.5740 C   0  0  0  0  0  3  0  0  0  0  0  0
  -12.9510  -16.9260   38.9740 H   0  0  0  0  0  0  0  0  0  0  0  0
  -14.2350  -18.2120   38.6640 H   0  0  0  0  0  0  0  0  0  0  0  0
  -13.8600  -17.5700   39.7340 H   0  0  0  0  0  0  0  0  0  0  0  0
  -12.4650  -16.0510   40.5200 H   0  0  0  0  0  0  0  0  0  0  0  0
  -11.8810  -15.8140   39.3810 H   0  0  0  0  0  0  0  0  0  0  0  0
  1  9  1  0
  1 18  1  0
  2  1  2  0
  3  2  1  0
  3  8  1  0
  4  3  2  0
  5  4  1  0
  5  6  2  0
  6  7  1  0
  7  8  2  0
  7 12  1  0
  8  9  1  0
  9 21  1  0
 10  4  1  0
 11  6  1  0
 13 20  1  0
 13 14  1  0
 14 15  2  0
 15 16  1  0
 17 16  1  0
 18 14  1  0
 18 17  2  0
 19 13  1  0
 22 26  1  0
 23 27  1  0
 24 23  1  0
 25 22  1  0
 28 23  1  0
M  END
>  <minimizedAffinity>  (38) 
-7.90786648

$$$$

     RDKit          3D

 56 55  0  0  0  0  0  0  0  0999 V2000
  -19.3590  -14.7740   36.4630 N   0  0  0  0  0  0  0  0  0  0  0  0
  -18.0850  -15.4510   36.8730 C   0  0  0  0  0  0  0  0  0  0  0  0
  -18.1210  -16.5800   37.8600 N   0  0  0  0  0  0  0  0  0  0  0  0
  -16.8470  -17.2580   38.2700 C   0  0  0  0  0  0  0  0  0  0  0  0
  -15.5370  -16.8050   37.6950 C   0  0  0  0  0  0  0  0  0  0  0  0
  -15.5020  -15.6760   36.7080 C   0  0  0  0  0  0  0  0  0  0  0  0
  -14.1930  -15.2230   36.1330 N   0  0  0  0  0  0  0  0  0  0  0  0
  -16.7760  -14.9990   36.2980 N   0  0  0  0  0  0  0  0  0  0  0  0
  -20.2180  -15.0710   36.8400 H   0  0  0  0  0  0  0  0  0  0  0  0
  -16.8710  -18.0350   38.9490 H   0  0  0  0  0  0  0  0  0  0  0  0
  -14.6610  -17.2710   37.9770 H   0  0  0  0  0  0  0  0  0  0  0  0
  -12.9190  -15.9010   36.5430 C   0  0  0  0  0  0  0  0  0  0  0  0
  -12.8400  -16.6150   37.8600 C   0  0  0  0  0  0  0  0  0  0  0  0
  -11.5660  -17.2920   38.2710 C   0  0  0  0  0  0  0  0  0  0  0  0
  -10.3710  -17.2550   37.3650 C   0  0  0  0  0  0  0  0  0  0  0  0
   -8.9910  -17.8270   37.5000 C   0  0  0  0  0  0  0  0  0  0  0  0
   -8.2170  -17.4670   36.2670 N   0  0  0  0  0  0  0  0  0  0  0  0
   -9.1190  -16.6710   35.3700 N   0  0  0  0  0  0  0  0  0  0  0  0
  -10.4500  -16.5410   36.0480 C   0  0  0  0  0  0  0  0  0  0  0  0
  -11.7240  -15.8640   35.6370 C   0  0  0  0  0  0  0  0  0  0  0  0
  -13.6620  -16.6400   38.4830 H   0  0  0  0  0  0  0  0  0  0  0  0
  -11.5120  -17.7830   39.1770 H   0  0  0  0  0  0  0  0  0  0  0  0
   -8.8790  -16.3000   34.4890 H   0  0  0  0  0  0  0  0  0  0  0  0
  -11.7790  -15.3720   34.7310 H   0  0  0  0  0  0  0  0  0  0  0  0
   -8.4760  -18.6210   38.6640 C   0  0  0  0  0  0  0  0  0  0  0  0
   -9.1140  -18.8230   39.4980 H   0  0  0  0  0  0  0  0  0  0  0  0
   -7.4700  -18.9840   38.6590 H   0  0  0  0  0  0  0  0  0  0  0  0
   -8.1080  -19.1870   39.4940 H   0  0  0  0  0  0  0  0  0  0  0  0
  -19.4100  -12.7970   33.0220 C   0  0  0  0  0  3  0  0  0  0  0  0
  -19.2530  -11.3850   33.5030 C   0  0  0  0  0  0  0  0  0  0  0  0
  -19.1310  -11.1030   34.9710 C   0  0  0  0  0  0  0  0  0  0  0  0
  -19.1670  -12.2330   35.9580 C   0  0  0  0  0  0  0  0  0  0  0  0
  -19.3240  -13.6440   35.4760 C   0  0  0  0  0  0  0  0  0  0  0  0
  -19.4450  -13.9270   34.0080 C   0  0  0  0  0  0  0  0  0  0  0  0
  -19.2290  -10.6080   32.8240 H   0  0  0  0  0  0  0  0  0  0  0  0
  -19.0230  -10.1320   35.3030 H   0  0  0  0  0  0  0  0  0  0  0  0
  -19.5530  -14.8980   33.6770 H   0  0  0  0  0  0  0  0  0  0  0  0
  -19.5320  -13.0800   31.5530 S   0  0  0  0  0 15  0  0  0  0  0  0
  -19.3330  -14.5430   31.8180 O   0  0  0  0  0 15  0  0  0  0  0  0
  -19.7300  -11.6170   31.2890 O   0  0  0  0  0 15  0  0  0  0  0  0
  -19.6530  -13.3620   30.0850 C   0  0  0  0  0  3  0  0  0  0  0  0
  -20.5890  -13.6830   29.6780 H   0  0  0  0  0  0  0  0  0  0  0  0
  -20.5020  -13.4810   30.7250 H   0  0  0  0  0  0  0  0  0  0  0  0
  -18.4630  -13.1950   29.1880 C   0  0  0  0  0  0  0  0  0  0  0  0
  -18.5500  -13.3960   28.1410 H   0  0  0  0  0  0  0  0  0  0  0  0
  -17.5270  -12.8740   29.5950 H   0  0  0  0  0  0  0  0  0  0  0  0
  -17.6130  -13.0760   28.5480 H   0  0  0  0  0  0  0  0  0  0  0  0
  -19.0450  -11.9500   37.4260 O   0  0  0  0  0  0  0  0  0  0  0  0
  -18.9880  -10.5330   37.9150 C   0  0  0  0  0  0  0  0  0  0  0  0
  -18.9020  -10.3320   38.9620 H   0  0  0  0  0  0  0  0  0  0  0  0
  -19.0350   -9.7240   37.2160 H   0  0  0  0  0  0  0  0  0  0  0  0
  -18.9480   -9.5220   38.2640 H   0  0  0  0  0  0  0  0  0  0  0  0
  -14.1580  -14.0940   35.1460 C   0  0  0  0  0  0  0  0  0  0  0  0
  -13.2240  -13.7710   34.7360 H   0  0  0  0  0  0  0  0  0  0  0  0
  -15.0660  -13.6110   34.8530 H   0  0  0  0  0  0  0  0  0  0  0  0
  -14.1330  -13.2880   34.4420 H   0  0  0  0  0  0  0  0  0  0  0  0
  1  9  1  0
  1  2  1  0
  2  3  2  0
  3  4  1  0
  4 10  1  0
  5 11  1  0
  5  4  2  0
  6  5  1  0
  7 12  1  0
  7  6  1  0
  8  6  2  0
  8  2  1  0
 12 13  1  0
 13 14  2  0
 13 21  1  0
 14 22  1  0
 15 16  1  0
 15 14  1  0
 16 25  1  0
 17 16  2  0
 18 19  1  0
 18 17  1  0
 19 15  2  0
 20 19  1  0
 20 12  2  0
 23 18  1  0
 24 20  1  0
 25 28  1  0
 25 26  1  0
 27 25  1  0
 29 30  2  0
 29 34  1  0
 30 31  1  0
 31 36  1  0
 31 32  2  0
 32 48  1  0
 33 32  1  0
 33  1  1  0
 34 33  2  0
 35 30  1  0
 37 34  1  0
 41 43  1  0
 42 41  1  0
 44 46  1  0
 44 41  1  0
 45 44  1  0
 47 44  1  0
 48 49  1  0
 49 52  1  0
 49 50  1  0
 51 49  1  0
 53  7  1  0
 54 53  1  0
 55 53  1  0
 56 53  1  0
M  END
>  <minimizedAffinity>  (39) 
-8.50305939

$$$$

     RDKit          3D

 62 65  0  0  0  0  0  0  0  0999 V2000
  -18.4510  -15.7530   38.2550 N   0  0  0  0  0  0  0  0  0  0  0  0
  -17.0980  -16.3860   38.1200 C   0  0  0  0  0  0  0  0  0  0  0  0
  -16.5870  -17.3020   39.1920 C   0  0  0  0  0  0  0  0  0  0  0  0
  -15.2340  -17.9340   39.0570 C   0  0  0  0  0  0  0  0  0  0  0  0
  -14.3910  -17.6500   37.8490 C   0  0  0  0  0  0  0  0  0  0  0  0
  -14.9010  -16.7340   36.7770 C   0  0  0  0  0  0  0  0  0  0  0  0
  -16.2540  -16.1020   36.9120 C   0  0  0  0  0  0  0  0  0  0  0  0
  -17.1680  -17.4970   40.0230 H   0  0  0  0  0  0  0  0  0  0  0  0
  -14.8830  -18.5650   39.7950 H   0  0  0  0  0  0  0  0  0  0  0  0
  -14.3210  -16.5390   35.9460 H   0  0  0  0  0  0  0  0  0  0  0  0
  -16.6060  -15.4720   36.1740 H   0  0  0  0  0  0  0  0  0  0  0  0
  -13.0370  -18.2830   37.7140 N   0  0  0  0  0  0  0  0  0  0  0  0
  -11.8010  -17.4450   37.8550 C   0  0  0  0  0  0  0  0  0  0  0  0
  -11.9180  -15.9750   38.1300 O   0  0  0  0  0  0  0  0  0  0  0  0
  -10.4480  -18.0780   37.7190 N   0  0  0  0  0  0  0  0  0  0  0  0
  -12.9610  -19.2470   37.5330 H   0  0  0  0  0  0  0  0  0  0  0  0
  -10.3710  -19.0420   37.5390 H   0  0  0  0  0  0  0  0  0  0  0  0
   -9.2110  -17.2400   37.8600 C   0  0  0  0  0  0  0  0  0  0  0  0
   -8.1340  -17.6480   38.8220 C   0  0  0  0  0  0  0  0  0  0  0  0
   -8.2940  -18.8920   39.6430 Cl  0  0  0  0  0  0  0  0  0  0  0  0
   -6.8980  -16.8100   38.9620 C   0  0  0  0  0  0  0  0  0  0  0  0
   -6.7380  -15.5650   38.1410 C   0  0  0  0  0  0  0  0  0  0  0  0
   -7.8150  -15.1580   37.1790 C   0  0  0  0  0  0  0  0  0  0  0  0
   -9.0510  -15.9950   37.0390 C   0  0  0  0  0  0  0  0  0  0  0  0
  -10.1280  -15.5880   36.0770 Cl  0  0  0  0  0  0  0  0  0  0  0  0
   -6.1570  -17.0900   39.6240 H   0  0  0  0  0  0  0  0  0  0  0  0
   -5.8870  -14.9890   38.2370 H   0  0  0  0  0  0  0  0  0  0  0  0
   -7.7050  -14.3010   36.6140 H   0  0  0  0  0  0  0  0  0  0  0  0
  -18.8040  -14.5520   37.4280 C   0  0  0  0  0  0  0  0  0  0  0  0
  -19.4340  -13.3550   38.0760 C   0  0  0  0  0  0  0  0  0  0  0  0
  -19.7860  -12.1540   37.2490 C   0  0  0  0  0  0  0  0  0  0  0  0
  -19.5090  -12.1500   35.7750 N   0  0  0  0  0  0  0  0  0  0  0  0
  -18.8790  -13.3480   35.1280 C   0  0  0  0  0  0  0  0  0  0  0  0
  -18.6010  -13.3440   33.6540 N   0  0  0  0  0  0  0  0  0  0  0  0
  -18.5260  -14.5490   35.9540 N   0  0  0  0  0  0  0  0  0  0  0  0
  -19.6250  -13.3580   39.0900 H   0  0  0  0  0  0  0  0  0  0  0  0
  -20.2200  -11.3300   37.6950 H   0  0  0  0  0  0  0  0  0  0  0  0
  -18.1880  -14.1300   33.2280 H   0  0  0  0  0  0  0  0  0  0  0  0
  -18.9540  -12.1430   32.8270 C   0  0  0  0  0  0  0  0  0  0  0  0
  -19.0630  -10.7940   33.4730 C   0  0  0  0  0  0  0  0  0  0  0  0
  -19.4160   -9.5920   32.6470 C   0  0  0  0  0  0  0  0  0  0  0  0
  -19.6590   -9.7410   31.1740 C   0  0  0  0  0  0  0  0  0  0  0  0
  -19.5490  -11.0900   30.5280 C   0  0  0  0  0  0  0  0  0  0  0  0
  -19.1970  -12.2910   31.3540 C   0  0  0  0  0  0  0  0  0  0  0  0
  -18.8960  -10.6910   34.4870 H   0  0  0  0  0  0  0  0  0  0  0  0
  -19.4910   -8.6640   33.0920 H   0  0  0  0  0  0  0  0  0  0  0  0
  -19.9020   -8.9140   30.6050 H   0  0  0  0  0  0  0  0  0  0  0  0
  -19.1220  -13.2190   30.9090 H   0  0  0  0  0  0  0  0  0  0  0  0
  -19.7930  -11.2380   29.0550 C   0  0  0  0  0  0  0  0  0  0  0  0
  -20.7150  -11.6520   28.7040 H   0  0  0  0  0  0  0  0  0  0  0  0
  -19.9660  -11.3440   28.0040 H   0  0  0  0  0  0  0  0  0  0  0  0
  -18.7430  -10.8050   28.0740 S   0  0  2  0  0  0  0  0  0  0  0  0
  -17.9370  -12.0290   28.3970 O   0  0  0  0  0  0  0  0  0  0  0  0
  -19.5490   -9.5820   27.7520 O   0  0  0  0  0  0  0  0  0  0  0  0
  -17.6940  -10.3730   27.0940 C   0  0  0  0  0  0  0  0  0  0  0  0
  -16.8210  -10.9750   26.9440 H   0  0  0  0  0  0  0  0  0  0  0  0
  -17.8170   -9.4630   26.5450 H   0  0  0  0  0  0  0  0  0  0  0  0
  -16.9450  -10.0640   26.3940 H   0  0  0  0  0  0  0  0  0  0  0  0
  -19.4520  -16.3220   39.2160 C   0  0  0  0  0  0  0  0  0  0  0  0
  -19.2000  -17.1790   39.8060 H   0  0  0  0  0  0  0  0  0  0  0  0
  -20.4180  -15.8710   39.3130 H   0  0  0  0  0  0  0  0  0  0  0  0
  -20.1660  -16.7280   39.9020 H   0  0  0  0  0  0  0  0  0  0  0  0
  1 59  1  0
  2  1  1  0
  2  3  1  0
  3  8  1  0
  4  3  2  0
  4  9  1  0
  5  4  1  0
  6  7  1  0
  6  5  2  0
  7  2  2  0
 10  6  1  0
 11  7  1  0
 12  5  1  0
 12 13  1  0
 13 14  2  0
 15 13  1  0
 15 18  1  0
 16 12  1  0
 17 15  1  0
 18 19  1  0
 19 21  2  0
 19 20  1  0
 21 26  1  0
 22 27  1  0
 22 21  1  0
 23 22  2  0
 24 23  1  0
 24 18  2  0
 25 24  1  0
 28 23  1  0
 29 30  1  0
 29  1  1  0
 30 36  1  0
 31 37  1  0
 31 30  2  0
 32 31  1  0
 33 32  2  0
 33 35  1  0
 34 33  1  0
 35 29  2  0
 38 34  1  0
 39 40  1  0
 39 34  1  0
 40 45  1  0
 41 46  1  0
 41 40  2  0
 42 41  1  0
 43 42  2  0
 43 44  1  0
 44 39  2  0
 47 42  1  0
 48 44  1  0
 49 43  1  0
 50 49  1  0
 51 49  1  0
 52 53  2  0
 52 49  1  0
 54 52  2  0
 55 52  1  0
 56 55  1  0
 57 55  1  0
 58 55  1  0
 59 61  1  0
 59 60  1  0
 59 62  1  0
M  END
>  <minimizedAffinity>  (40) 
-5.66008949

$$$$

     RDKit          3D

 37 36  0  0  1  0  0  0  0  0999 V2000
  -10.4710  -16.0430   36.1050 C   0  0  0  0  0  0  0  0  0  0  0  0
  -11.8520  -15.6600   36.5460 C   0  0  0  0  0  0  0  0  0  0  0  0
  -12.5510  -15.0250   35.3800 C   0  0  0  0  0  3  0  0  0  0  0  0
  -13.9300  -14.4530   35.2270 C   0  0  0  0  0  0  0  0  0  0  0  0
  -14.3590  -13.8740   33.9120 N   0  0  0  0  0  0  0  0  0  0  0  0
  -13.4100  -13.8650   32.7500 C   0  0  0  0  0  3  0  0  0  0  0  0
  -12.0320  -14.4360   32.9040 N   0  0  0  0  0  0  0  0  0  0  0  0
  -11.6020  -15.0160   34.2190 C   0  0  0  0  0  0  0  0  0  0  0  0
  -10.3170  -15.6450   34.6660 O   0  0  0  0  0  0  0  0  0  0  0  0
  -12.2510  -15.8060   37.4860 H   0  0  0  0  0  0  0  0  0  0  0  0
  -13.7060  -13.4660   31.8460 H   0  0  0  0  0  0  0  0  0  0  0  0
   -7.3390  -18.0370   38.6480 C   0  0  0  0  0  0  0  0  0  0  0  0
   -8.2890  -18.8690   37.8380 C   0  0  0  0  0  0  0  0  0  0  0  0
   -9.3320  -18.2040   36.9900 C   0  0  0  0  0  0  0  0  0  0  0  0
   -9.4270  -16.7080   36.9520 C   0  0  0  0  0  0  0  0  0  0  0  0
   -8.4770  -15.8760   37.7630 C   0  0  0  0  0  0  0  0  0  0  0  0
   -7.4340  -16.5400   38.6100 C   0  0  0  0  0  0  0  0  0  0  0  0
   -8.2240  -19.8980   37.8640 H   0  0  0  0  0  0  0  0  0  0  0  0
   -9.9860  -18.7760   36.4320 H   0  0  0  0  0  0  0  0  0  0  0  0
   -8.5430  -14.8460   37.7370 H   0  0  0  0  0  0  0  0  0  0  0  0
   -6.7800  -15.9680   39.1680 H   0  0  0  0  0  0  0  0  0  0  0  0
   -6.2950  -18.7010   39.4960 C   0  0  0  0  0  0  0  0  0  0  0  0
   -6.2280  -19.7690   39.5230 H   0  0  0  0  0  0  0  0  0  0  0  0
   -5.6180  -18.1080   40.0740 H   0  0  0  0  0  0  0  0  0  0  0  0
   -5.5510  -19.1760   40.1010 H   0  0  0  0  0  0  0  0  0  0  0  0
  -14.8790  -14.4620   36.3890 N   0  0  0  0  0  0  0  0  0  0  0  0
  -16.0490  -15.4010   36.3940 C   0  0  0  0  0  2  0  0  0  0  0  0
  -16.2700  -16.3310   35.2380 O   0  0  0  0  0  1  0  0  0  0  0  0
  -14.7340  -13.8520   37.1480 H   0  0  0  0  0  0  0  0  0  0  0  0
  -16.9980  -15.4090   37.5560 C   0  0  0  0  0 15  0  0  0  0  0  0
  -18.3910  -15.5460   38.0940 C   0  0  0  0  0  3  0  0  0  0  0  0
  -17.2480  -15.2880   39.0300 C   0  0  0  0  0  2  0  0  0  0  0  0
  -17.6750  -15.4160   38.3850 H   0  0  0  0  0  0  0  0  0  0  0  0
  -19.4360  -15.7100   37.9300 H   0  0  0  0  0  0  0  0  0  0  0  0
  -18.8340  -15.5050   39.0670 H   0  0  0  0  0  0  0  0  0  0  0  0
  -16.8800  -15.1310   40.0230 H   0  0  0  0  0  0  0  0  0  0  0  0
  -16.1920  -15.1530   38.9160 H   0  0  0  0  0  0  0  0  0  0  0  0
  1  2  2  0
  1 15  1  0
  2 10  1  0
  3  8  1  0
  3  2  1  0
  4  3  1  0
  4 26  1  0
  5  4  2  0
  6  7  1  0
  6  5  1  0
  7  8  2  0
  8  9  1  0
  9  1  1  0
 11  6  1  0
 12 22  1  0
 13 18  1  0
 13 12  2  0
 14 13  1  0
 15 14  2  0
 15 16  1  0
 16 17  2  0
 17 12  1  0
 17 21  1  0
 19 14  1  0
 20 16  1  0
 22 23  1  0
 22 24  1  0
 22 25  1  0
 26 27  1  0
 26 29  1  0
 28 27  1  0
 31 33  1  0
 31 35  1  0
 32 36  1  0
 34 31  1  0
 37 32  1  0
M  END
>  <minimizedAffinity>  (41) 
-9.29366302

$$$$

     RDKit          3D

 51 52  0  0  0  0  0  0  0  0999 V2000
  -12.9600  -16.6070   38.8980 C   0  0  0  0  0  0  0  0  0  0  0  0
  -12.0810  -16.3620   40.0870 C   0  0  0  0  0  0  0  0  0  0  0  0
  -10.6130  -16.1160   39.8970 C   0  0  0  0  0  0  0  0  0  0  0  0
  -10.0250  -16.1150   38.5180 C   0  0  0  0  0  0  0  0  0  0  0  0
  -10.9050  -16.3610   37.3280 C   0  0  0  0  0  0  0  0  0  0  0  0
  -12.3720  -16.6070   37.5180 C   0  0  0  0  0  0  0  0  0  0  0  0
  -12.4850  -16.3620   41.0370 H   0  0  0  0  0  0  0  0  0  0  0  0
  -10.0080  -15.9470   40.7160 H   0  0  0  0  0  0  0  0  0  0  0  0
  -12.9780  -16.7750   36.6990 H   0  0  0  0  0  0  0  0  0  0  0  0
  -10.3170  -16.3600   35.9480 N   0  0  0  0  0  0  0  0  0  0  0  0
  -11.0720  -15.7380   34.8110 C   0  0  0  0  0  0  0  0  0  0  0  0
  -10.6150  -15.6620   33.3850 N   0  0  0  0  0  0  0  0  0  0  0  0
  -11.6780  -14.9590   32.5930 C   0  0  0  0  0  0  0  0  0  0  0  0
  -12.7930  -14.6000   33.5300 C   0  0  0  0  0  0  0  0  0  0  0  0
  -12.4190  -15.0820   34.9010 O   0  0  0  0  0  0  0  0  0  0  0  0
   -9.4360  -16.7680   35.7880 H   0  0  0  0  0  0  0  0  0  0  0  0
  -11.6470  -14.7580   31.5820 H   0  0  0  0  0  0  0  0  0  0  0  0
  -14.0590  -13.8860   33.1620 C   0  0  0  0  0  0  0  0  0  0  0  0
  -14.0910  -12.9880   31.9610 C   0  0  0  0  0  0  0  0  0  0  0  0
  -15.3580  -12.2740   31.5920 C   0  0  0  0  0  0  0  0  0  0  0  0
  -16.5910  -12.4570   32.4240 C   0  0  0  0  0  0  0  0  0  0  0  0
  -16.5600  -13.3560   33.6250 C   0  0  0  0  0  0  0  0  0  0  0  0
  -15.2930  -14.0700   33.9940 C   0  0  0  0  0  0  0  0  0  0  0  0
  -13.2420  -12.8610   31.3880 H   0  0  0  0  0  0  0  0  0  0  0  0
  -15.3790  -11.6550   30.7660 H   0  0  0  0  0  0  0  0  0  0  0  0
  -17.4620  -11.9660   32.1710 H   0  0  0  0  0  0  0  0  0  0  0  0
  -17.4090  -13.4830   34.1970 H   0  0  0  0  0  0  0  0  0  0  0  0
  -15.2720  -14.6880   34.8200 H   0  0  0  0  0  0  0  0  0  0  0  0
  -14.4280  -16.8530   39.0880 S   0  0  2  0  0  0  0  0  0  0  0  0
  -14.1820  -18.3330   39.0660 O   0  0  0  0  0  0  0  0  0  0  0  0
  -14.6730  -15.3730   39.1090 O   0  0  0  0  0  0  0  0  0  0  0  0
  -15.8950  -17.0990   39.2780 N   0  0  0  0  0  2  0  0  0  0  0  0
  -16.7890  -17.2630   38.0840 C   0  0  0  0  0  3  0  0  0  0  0  0
  -16.7540  -18.1660   37.5090 H   0  0  0  0  0  0  0  0  0  0  0  0
  -16.1160  -18.0480   38.3610 H   0  0  0  0  0  0  0  0  0  0  0  0
  -17.7310  -16.1630   37.6960 C   0  0  0  0  0  0  0  0  0  0  0  0
  -17.7660  -15.2600   38.2700 H   0  0  0  0  0  0  0  0  0  0  0  0
  -18.3690  -16.2800   36.8440 H   0  0  0  0  0  0  0  0  0  0  0  0
  -18.4040  -15.3780   37.4190 H   0  0  0  0  0  0  0  0  0  0  0  0
  -16.4690  -17.1810   40.6610 C   0  0  0  0  0  0  0  0  0  0  0  0
  -16.5400  -16.2990   41.2640 H   0  0  0  0  0  0  0  0  0  0  0  0
  -16.8780  -17.2390   41.6480 H   0  0  0  0  0  0  0  0  0  0  0  0
  -16.9430  -18.4980   41.2000 C   0  0  0  0  0  0  0  0  0  0  0  0
  -17.3520  -18.5560   42.1870 H   0  0  0  0  0  0  0  0  0  0  0  0
  -16.8710  -19.3800   40.5970 H   0  0  0  0  0  0  0  0  0  0  0  0
  -17.2800  -19.4380   41.5840 H   0  0  0  0  0  0  0  0  0  0  0  0
   -8.5580  -15.8690   38.3270 O   0  0  0  0  0  0  0  0  0  0  0  0
   -7.5720  -16.9650   38.6030 C   0  0  0  0  0  0  0  0  0  0  0  0
   -6.5250  -16.7900   38.4680 H   0  0  0  0  0  0  0  0  0  0  0  0
   -7.9150  -17.9230   38.9360 H   0  0  0  0  0  0  0  0  0  0  0  0
   -6.8680  -17.7480   38.8000 H   0  0  0  0  0  0  0  0  0  0  0  0
  1 29  1  0
  1  2  1  0
  2  7  1  0
  3  2  2  0
  3  8  1  0
  4  3  1  0
  5  6  1  0
  5  4  2  0
  6  1  2  0
  9  6  1  0
 10  5  1  0
 11 15  1  0
 11 10  1  0
 12 11  2  0
 13 12  1  0
 13 14  2  0
 14 15  1  0
 16 10  1  0
 17 13  1  0
 18 14  1  0
 18 23  1  0
 19 18  2  0
 20 19  1  0
 20 21  2  0
 21 22  1  0
 22 23  2  0
 22 27  1  0
 23 28  1  0
 24 19  1  0
 25 20  1  0
 26 21  1  0
 29 31  2  0
 29 32  1  0
 30 29  2  0
 32 40  1  0
 33 35  1  0
 34 33  1  0
 36 33  1  0
 36 37  1  0
 38 36  1  0
 39 36  1  0
 40 43  1  0
 40 41  1  0
 40 42  1  0
 43 46  1  0
 43 44  1  0
 45 43  1  0
 47  4  1  0
 47 48  1  0
 48 51  1  0
 48 50  1  0
 49 48  1  0
M  END
>  <minimizedAffinity>  (42) 
-8.50788975

$$$$

     RDKit          3D

 40 42  0  0  0  0  0  0  0  0999 V2000
  -16.4090  -14.8770   35.1990 C   0  0  0  0  0  0  0  0  0  0  0  0
  -16.4990  -15.6990   36.4510 C   0  0  0  0  0  0  0  0  0  0  0  0
  -15.2530  -16.2520   37.0770 C   0  0  0  0  0  0  0  0  0  0  0  0
  -15.3440  -17.0740   38.3280 N   0  0  0  0  0  0  0  0  0  0  0  0
  -14.0980  -17.6270   38.9550 C   0  0  0  0  0  0  0  0  0  0  0  0
  -12.7610  -17.3580   38.3290 N   0  0  0  0  0  0  0  0  0  0  0  0
  -12.6710  -16.5360   37.0780 C   0  0  0  0  0  0  0  0  0  0  0  0
  -13.9170  -15.9830   36.4520 C   0  0  0  0  0  0  0  0  0  0  0  0
  -13.8260  -15.1610   35.2000 C   0  0  0  0  0  0  0  0  0  0  0  0
  -15.0720  -14.6080   34.5740 C   0  0  0  0  0  0  0  0  0  0  0  0
  -17.4190  -15.8850   36.8810 H   0  0  0  0  0  0  0  0  0  0  0  0
  -14.1600  -18.1920   39.8160 H   0  0  0  0  0  0  0  0  0  0  0  0
  -12.9060  -14.9760   34.7700 H   0  0  0  0  0  0  0  0  0  0  0  0
  -11.3340  -16.2660   36.4530 N   0  0  0  0  0  0  0  0  0  0  0  0
  -11.2830  -15.8790   35.5490 H   0  0  0  0  0  0  0  0  0  0  0  0
  -10.0760  -16.5870   37.2040 C   0  0  0  0  0  0  0  0  0  0  0  0
   -8.9580  -15.5890   37.2560 C   0  0  0  0  0  0  0  0  0  0  0  0
   -7.7000  -15.9090   38.0070 C   0  0  0  0  0  0  0  0  0  0  0  0
   -7.5610  -17.2290   38.7070 C   0  0  0  0  0  0  0  0  0  0  0  0
   -8.6790  -18.2270   38.6550 C   0  0  0  0  0  0  0  0  0  0  0  0
   -9.9360  -17.9070   37.9040 C   0  0  0  0  0  0  0  0  0  0  0  0
   -9.0540  -14.6810   36.7740 H   0  0  0  0  0  0  0  0  0  0  0  0
   -6.9310  -15.2220   38.0430 H   0  0  0  0  0  0  0  0  0  0  0  0
  -10.7060  -18.5940   37.8680 H   0  0  0  0  0  0  0  0  0  0  0  0
   -6.3030  -17.5500   39.4590 C   0  0  0  0  0  0  0  0  0  0  0  0
   -5.5050  -16.8370   39.4960 H   0  0  0  0  0  0  0  0  0  0  0  0
   -6.2030  -18.4910   39.9580 H   0  0  0  0  0  0  0  0  0  0  0  0
   -5.4050  -17.7780   39.9950 H   0  0  0  0  0  0  0  0  0  0  0  0
   -8.5390  -19.5470   39.3550 O   0  0  0  0  0  0  0  0  0  0  0  0
   -7.7530  -19.7470   39.8240 H   0  0  0  0  0  0  0  0  0  0  0  0
  -17.6540  -14.3250   34.5730 O   0  0  0  0  0  0  0  0  0  0  0  0
  -18.9240  -15.1240   34.5970 C   0  0  0  0  0  0  0  0  0  0  0  0
  -19.8130  -14.7290   34.1500 H   0  0  0  0  0  0  0  0  0  0  0  0
  -18.9410  -16.0870   35.0610 H   0  0  0  0  0  0  0  0  0  0  0  0
  -19.8290  -15.6940   34.6140 H   0  0  0  0  0  0  0  0  0  0  0  0
  -14.9810  -13.7860   33.3230 O   0  0  0  0  0  0  0  0  0  0  0  0
  -13.6500  -13.5550   32.6720 C   0  0  0  0  0  0  0  0  0  0  0  0
  -12.7650  -13.9750   33.1010 H   0  0  0  0  0  0  0  0  0  0  0  0
  -13.5850  -12.9680   31.7790 H   0  0  0  0  0  0  0  0  0  0  0  0
  -12.7000  -13.3890   32.2080 H   0  0  0  0  0  0  0  0  0  0  0  0
  1  2  1  0
  2 11  1  0
  2  3  2  0
  3  4  1  0
  4  5  2  0
  5 12  1  0
  6  5  1  0
  7  6  2  0
  8  3  1  0
  8  7  1  0
  9  8  2  0
 10  1  2  0
 10  9  1  0
 13  9  1  0
 14  7  1  0
 14 16  1  0
 15 14  1  0
 16 17  2  0
 16 21  1  0
 17 18  1  0
 18 23  1  0
 18 19  2  0
 19 25  1  0
 20 19  1  0
 20 29  1  0
 21 20  2  0
 22 17  1  0
 24 21  1  0
 25 26  1  0
 25 27  1  0
 25 28  1  0
 29 30  1  0
 31 32  1  0
 31  1  1  0
 32 35  1  0
 32 34  1  0
 33 32  1  0
 36 10  1  0
 37 38  1  0
 37 36  1  0
 39 37  1  0
 40 37  1  0
M  END
>  <minimizedAffinity>  (43) 
-8.22459126

$$$$

     RDKit          3D

 43 44  0  0  0  0  0  0  0  0999 V2000
  -10.8670  -15.9110   35.2810 C   0  0  0  0  0  0  0  0  0  0  0  0
   -9.5510  -16.5940   35.0530 C   0  0  0  0  0  0  0  0  0  0  0  0
   -8.9400  -17.4280   36.1390 C   0  0  0  0  0  0  0  0  0  0  0  0
   -9.6450  -17.5790   37.4550 C   0  0  0  0  0  0  0  0  0  0  0  0
  -10.9610  -16.8970   37.6830 C   0  0  0  0  0  0  0  0  0  0  0  0
  -11.5720  -16.0630   36.5970 C   0  0  0  0  0  0  0  0  0  0  0  0
   -9.0660  -16.4900   34.1470 H   0  0  0  0  0  0  0  0  0  0  0  0
   -8.0340  -17.8970   35.9820 H   0  0  0  0  0  0  0  0  0  0  0  0
  -12.4780  -15.5930   36.7540 H   0  0  0  0  0  0  0  0  0  0  0  0
  -11.6660  -17.0480   38.9990 N   0  0  0  0  0  0  0  0  0  0  0  0
  -13.1430  -16.8080   39.0900 C   0  0  0  0  0  0  0  0  0  0  0  0
  -13.9800  -16.9210   40.3300 N   0  0  0  0  0  0  0  0  0  0  0  0
  -15.3980  -16.5960   39.9630 C   0  0  0  0  0  0  0  0  0  0  0  0
  -15.4380  -16.2820   38.4970 C   0  0  0  0  0  0  0  0  0  0  0  0
  -14.0440  -16.4140   37.9570 O   0  0  0  0  0  0  0  0  0  0  0  0
  -11.1580  -17.3050   39.8020 H   0  0  0  0  0  0  0  0  0  0  0  0
  -16.2040  -16.5890   40.6070 H   0  0  0  0  0  0  0  0  0  0  0  0
  -16.6560  -15.9040   37.7090 C   0  0  0  0  0  0  0  0  0  0  0  0
  -18.0030  -15.8910   38.3690 C   0  0  0  0  0  0  0  0  0  0  0  0
  -19.2220  -15.5130   37.5810 C   0  0  0  0  0  0  0  0  0  0  0  0
  -19.0940  -15.1470   36.1320 C   0  0  0  0  0  0  0  0  0  0  0  0
  -17.7470  -15.1600   35.4710 C   0  0  0  0  0  0  0  0  0  0  0  0
  -17.6200  -14.7940   34.0220 F   0  0  0  0  0  0  0  0  0  0  0  0
  -16.5290  -15.5380   36.2590 C   0  0  0  0  0  0  0  0  0  0  0  0
  -18.0910  -16.1430   39.3660 H   0  0  0  0  0  0  0  0  0  0  0  0
  -20.1480  -15.5040   38.0360 H   0  0  0  0  0  0  0  0  0  0  0  0
  -19.9320  -14.8870   35.5900 H   0  0  0  0  0  0  0  0  0  0  0  0
  -15.6020  -15.5470   35.8040 H   0  0  0  0  0  0  0  0  0  0  0  0
  -11.4790  -15.0780   34.1950 S   0  0  0  0  0  0  0  0  0  0  0  0
  -12.1710  -14.2390   35.2280 O   0  0  0  0  0  0  0  0  0  0  0  0
  -10.7860  -15.9160   33.1620 O   0  0  0  0  0  1  0  0  0  0  0  0
  -12.0900  -14.2440   33.1080 C   0  0  0  0  0  3  0  0  0  0  0  0
  -11.4650  -13.6470   32.4760 H   0  0  0  0  0  0  0  0  0  0  0  0
  -11.0290  -14.2420   33.2510 H   0  0  0  0  0  0  0  0  0  0  0  0
  -13.5770  -14.2460   32.9070 C   0  0  0  0  0  0  0  0  0  0  0  0
  -14.0130  -13.6510   32.1320 H   0  0  0  0  0  0  0  0  0  0  0  0
  -14.2010  -14.8420   33.5390 H   0  0  0  0  0  0  0  0  0  0  0  0
  -14.6370  -14.2480   32.7640 H   0  0  0  0  0  0  0  0  0  0  0  0
   -9.0340  -18.4130   38.5420 O   0  0  0  0  0  0  0  0  0  0  0  0
   -7.6450  -18.9560   38.3790 C   0  0  0  0  0  0  0  0  0  0  0  0
   -7.2090  -19.5510   39.1540 H   0  0  0  0  0  0  0  0  0  0  0  0
   -7.0900  -18.7490   37.4880 H   0  0  0  0  0  0  0  0  0  0  0  0
   -6.6540  -19.3430   38.2630 H   0  0  0  0  0  0  0  0  0  0  0  0
  1  6  1  0
  2  1  2  0
  2  3  1  0
  3  4  2  0
  4  5  1  0
  4 39  1  0
  5 10  1  0
  6  9  1  0
  6  5  2  0
  7  2  1  0
  8  3  1  0
 10 11  1  0
 10 16  1  0
 11 12  2  0
 13 12  1  0
 13 17  1  0
 14 13  2  0
 15 14  1  0
 15 11  1  0
 18 19  1  0
 18 14  1  0
 19 25  1  0
 20 26  1  0
 20 19  2  0
 21 20  1  0
 22 21  2  0
 22 24  1  0
 23 22  1  0
 24 18  2  0
 27 21  1  0
 28 24  1  0
 29 31  1  0
 29 30  2  0
 29  1  1  0
 32 34  1  0
 33 32  1  0
 35 32  1  0
 35 37  1  0
 36 35  1  0
 38 35  1  0
 40 39  1  0
 40 41  1  0
 42 40  1  0
 43 40  1  0
M  END
>  <minimizedAffinity>  (44) 
-9.50953197

$$$$

     RDKit          3D

 47 50  0  0  1  0  0  0  0  0999 V2000
  -16.9770  -13.8130   33.7110 N   0  0  0  0  0  0  0  0  0  0  0  0
  -17.5040  -14.5910   34.8800 N   0  0  0  0  0  0  0  0  0  0  0  0
  -16.3370  -15.2130   35.5870 C   0  0  0  0  0  0  0  0  0  0  0  0
  -15.0880  -14.8190   34.8550 C   0  0  0  0  0  0  0  0  0  0  0  0
  -13.6420  -15.1360   35.0950 C   0  0  0  0  0  3  0  0  0  0  0  0
  -12.5910  -14.5890   34.1740 N   0  0  0  0  0  0  0  0  0  0  0  0
  -12.9870  -13.7230   33.0150 C   0  0  0  0  0  0  0  0  0  0  0  0
  -14.4330  -13.4060   32.7750 N   0  0  0  0  0  2  0  0  0  0  0  0
  -15.4840  -13.9540   33.6960 C   0  0  0  0  0  0  0  0  0  0  0  0
  -12.2640  -13.3460   32.3820 H   0  0  0  0  0  0  0  0  0  0  0  0
  -19.2080  -12.9320   30.5490 C   0  0  0  0  0  0  0  0  0  0  0  0
  -19.4430  -11.4670   30.7670 C   0  0  0  0  0  0  0  0  0  0  0  0
  -18.8560  -10.7830   31.9660 C   0  0  0  0  0  0  0  0  0  0  0  0
  -18.0340  -11.5650   32.9470 C   0  0  0  0  0  0  0  0  0  0  0  0
  -17.7990  -13.0310   32.7290 C   0  0  0  0  0  0  0  0  0  0  0  0
  -18.3860  -13.7150   31.5310 C   0  0  0  0  0  0  0  0  0  0  0  0
  -20.0080  -10.9290   30.0920 H   0  0  0  0  0  0  0  0  0  0  0  0
  -19.0170   -9.7750   32.1160 H   0  0  0  0  0  0  0  0  0  0  0  0
  -17.6300  -11.0950   33.7720 H   0  0  0  0  0  0  0  0  0  0  0  0
  -18.2240  -14.7220   31.3800 H   0  0  0  0  0  0  0  0  0  0  0  0
  -19.7950  -13.6160   29.3500 O   0  0  0  0  0  0  0  0  0  0  0  0
  -19.0190  -13.6790   28.0670 C   0  0  0  0  0  0  0  0  0  0  0  0
  -18.0460  -13.2350   28.0080 H   0  0  0  0  0  0  0  0  0  0  0  0
  -19.4370  -14.1660   27.2120 H   0  0  0  0  0  0  0  0  0  0  0  0
  -18.4650  -13.7230   27.1530 H   0  0  0  0  0  0  0  0  0  0  0  0
  -16.4060  -16.0770   36.8110 C   0  0  0  0  0  0  0  0  0  0  0  0
  -17.3530  -16.2980   37.2580 H   0  0  0  0  0  0  0  0  0  0  0  0
  -15.5070  -16.4720   37.2390 H   0  0  0  0  0  0  0  0  0  0  0  0
  -16.4540  -16.6930   37.6850 H   0  0  0  0  0  0  0  0  0  0  0  0
  -13.2460  -16.0020   36.2540 N   0  0  0  0  0  0  0  0  0  0  0  0
  -13.9330  -16.3420   36.8720 H   0  0  0  0  0  0  0  0  0  0  0  0
  -11.8030  -16.3480   36.4730 N   0  0  0  0  0  0  0  0  0  0  0  0
  -11.3220  -16.7270   37.8420 C   0  0  0  0  0  0  0  0  0  0  0  0
   -9.8790  -17.0740   38.0610 C   0  0  0  0  0  0  0  0  0  0  0  0
   -9.4300  -18.5030   37.9800 C   0  0  0  0  0  0  0  0  0  0  0  0
   -7.9870  -18.8500   38.1990 C   0  0  0  0  0  0  0  0  0  0  0  0
   -6.9930  -17.7670   38.4990 N   0  0  0  0  0  0  0  0  0  0  0  0
   -7.4420  -16.3380   38.5800 C   0  0  0  0  0  0  0  0  0  0  0  0
   -8.8850  -15.9920   38.3610 C   0  0  0  0  0  0  0  0  0  0  0  0
  -10.1140  -19.2480   37.7740 H   0  0  0  0  0  0  0  0  0  0  0  0
   -7.6790  -19.8330   38.1430 H   0  0  0  0  0  0  0  0  0  0  0  0
   -6.7580  -15.5930   38.7860 H   0  0  0  0  0  0  0  0  0  0  0  0
   -9.1930  -15.0080   38.4170 H   0  0  0  0  0  0  0  0  0  0  0  0
  -12.2840  -16.7590   38.9930 C   0  0  0  0  0  0  0  0  0  0  0  0
  -13.3130  -16.5120   38.8370 H   0  0  0  0  0  0  0  0  0  0  0  0
  -11.9410  -17.0290   39.9700 H   0  0  0  0  0  0  0  0  0  0  0  0
  -12.9700  -16.7820   39.8140 H   0  0  0  0  0  0  0  0  0  0  0  0
  1  2  1  0
  2  3  2  0
  3 26  1  0
  4  5  1  0
  4  3  1  0
  5 30  1  0
  6  5  1  0
  7  6  2  0
  8  7  1  0
  8  9  1  0
  9  1  1  0
  9  4  2  0
 10  7  1  0
 11 12  2  0
 11 16  1  0
 12 13  1  0
 13 18  1  0
 13 14  2  0
 14 19  1  0
 15 14  1  0
 15  1  1  0
 16 15  2  0
 17 12  1  0
 20 16  1  0
 21 11  1  0
 22 21  1  0
 23 22  1  0
 24 22  1  0
 25 22  1  0
 26 28  1  0
 26 27  1  0
 26 29  1  0
 30 32  1  0
 30 31  1  0
 32 33  2  0
 33 34  1  0
 33 44  1  0
 34 39  1  0
 35 34  2  0
 35 36  1  0
 36 37  2  0
 37 38  1  0
 38 42  1  0
 39 43  1  0
 39 38  2  0
 40 35  1  0
 41 36  1  0
 44 47  1  0
 44 46  1  0
 45 44  1  0
M  END
>  <minimizedAffinity>  (45) 
-7.83950281

$$$$

     RDKit          3D

 40 43  0  0  0  0  0  0  0  0999 V2000
  -13.7790  -14.6350   33.9880 N   0  0  0  0  0  0  0  0  0  0  0  0
  -12.5740  -15.2000   34.6780 C   0  0  0  0  0  0  0  0  0  0  0  0
  -11.1920  -15.2990   34.1020 C   0  0  0  0  0  0  0  0  0  0  0  0
  -10.7740  -14.8500   32.7340 O   0  0  0  0  0  0  0  0  0  0  0  0
  -10.3020  -15.9270   35.1340 N   0  0  0  0  0  0  0  0  0  0  0  0
  -11.1350  -16.2160   36.3490 C   0  0  0  0  0  0  0  0  0  0  0  0
  -10.7960  -16.8290   37.6740 C   0  0  0  0  0  0  0  0  0  0  0  0
  -11.8600  -16.9950   38.7190 C   0  0  0  0  0  0  0  0  0  0  0  0
  -13.2630  -16.5460   38.4370 C   0  0  0  0  0  0  0  0  0  0  0  0
  -13.6020  -15.9320   37.1110 C   0  0  0  0  0  0  0  0  0  0  0  0
  -12.5380  -15.7670   36.0670 C   0  0  0  0  0  0  0  0  0  0  0  0
   -9.3420  -16.1150   35.0320 H   0  0  0  0  0  0  0  0  0  0  0  0
   -9.8300  -17.1380   37.8680 H   0  0  0  0  0  0  0  0  0  0  0  0
  -11.6260  -17.4170   39.6310 H   0  0  0  0  0  0  0  0  0  0  0  0
  -14.5680  -15.6230   36.9170 H   0  0  0  0  0  0  0  0  0  0  0  0
  -14.3270  -16.7110   39.4810 C   0  0  0  0  0  0  0  0  0  0  0  0
  -14.8230  -15.6440   40.4110 C   0  0  0  0  0  0  0  0  0  0  0  0
  -15.8850  -16.2450   41.2830 N   0  0  0  0  0  0  0  0  0  0  0  0
  -16.0450  -17.6840   40.8930 C   0  0  0  0  0  0  0  0  0  0  0  0
  -15.0820  -17.9720   39.7780 O   0  0  0  0  0  0  0  0  0  0  0  0
  -14.4920  -14.6670   40.4450 H   0  0  0  0  0  0  0  0  0  0  0  0
  -16.7020  -18.3580   41.3150 H   0  0  0  0  0  0  0  0  0  0  0  0
  -13.6610  -14.1020   32.5910 N   0  0  0  0  0  0  0  0  0  0  0  0
  -12.8860  -14.3450   32.0340 H   0  0  0  0  0  0  0  0  0  0  0  0
  -16.8520  -11.3910   30.9400 C   0  0  0  0  0  0  0  0  0  0  0  0
  -16.4080  -11.2460   32.3650 C   0  0  0  0  0  0  0  0  0  0  0  0
  -15.3440  -12.1490   32.9160 C   0  0  0  0  0  0  0  0  0  0  0  0
  -14.7250  -13.1980   32.0400 C   0  0  0  0  0  0  0  0  0  0  0  0
  -15.1690  -13.3440   30.6150 C   0  0  0  0  0  0  0  0  0  0  0  0
  -16.2330  -12.4400   30.0640 C   0  0  0  0  0  0  0  0  0  0  0  0
  -16.8340  -10.5240   32.9680 H   0  0  0  0  0  0  0  0  0  0  0  0
  -15.0390  -12.0490   33.8960 H   0  0  0  0  0  0  0  0  0  0  0  0
  -14.7430  -14.0660   30.0120 H   0  0  0  0  0  0  0  0  0  0  0  0
  -16.5390  -12.5400   29.0840 H   0  0  0  0  0  0  0  0  0  0  0  0
  -17.9150  -10.4880   30.3890 S   0  0  1  0  0  0  0  0  0  0  0  0
  -18.2280  -10.0110   31.7770 O   0  0  0  0  0  0  0  0  0  0  0  0
  -17.6030  -10.9650   29.0030 O   0  0  0  0  0  0  0  0  0  0  0  0
  -18.9790   -9.5840   29.8400 N   0  0  0  0  0  0  0  0  0  0  0  0
  -19.5250   -8.9960   30.4700 H   0  0  0  0  0  0  0  0  0  0  0  0
  -19.1570   -9.5580   28.8360 H   0  0  0  0  0  0  0  0  0  0  0  0
  1  2  2  0
  2 11  1  0
  3  2  1  0
  3  5  1  0
  4  3  2  0
  5  6  1  0
  6  7  1  0
  7 13  1  0
  7  8  2  0
  8 14  1  0
  9  8  1  0
  9 16  1  0
 10  9  2  0
 11  6  2  0
 11 10  1  0
 12  5  1  0
 15 10  1  0
 16 20  1  0
 16 17  2  0
 17 21  1  0
 17 18  1  0
 19 18  2  0
 19 22  1  0
 20 19  1  0
 23  1  1  0
 24 23  1  0
 25 26  1  0
 26 27  2  0
 26 31  1  0
 27 32  1  0
 28 23  1  0
 28 27  1  0
 29 28  2  0
 30 29  1  0
 30 25  2  0
 33 29  1  0
 34 30  1  0
 35 25  1  0
 35 36  2  0
 37 35  2  0
 38 35  1  0
 38 39  1  0
 40 38  1  0
M  END
>  <minimizedAffinity>  (46) 
-8.34338379

$$$$

     RDKit          3D

 45 48  0  0  0  0  0  0  0  0999 V2000
  -16.4610  -16.0860   36.9420 C   0  0  0  0  0  0  0  0  0  0  0  0
  -15.0110  -16.4540   37.0490 C   0  0  0  0  0  0  0  0  0  0  0  0
  -14.8100  -17.1740   38.3480 C   0  0  0  0  0  0  0  0  0  0  0  0
  -16.1360  -17.2520   39.0450 C   0  0  0  0  0  0  0  0  0  0  0  0
  -17.1570  -16.5790   38.1760 S   0  0  0  0  0  0  0  0  0  0  0  0
  -14.2800  -16.2470   36.3500 H   0  0  0  0  0  0  0  0  0  0  0  0
  -15.5250  -13.0670   32.2900 C   0  0  0  0  0  0  0  0  0  0  0  0
  -16.9840  -13.2630   32.5750 C   0  0  0  0  0  0  0  0  0  0  0  0
  -17.4140  -14.0470   33.7790 C   0  0  0  0  0  0  0  0  0  0  0  0
  -18.7700  -14.4040   34.3140 N   0  0  0  0  0  0  0  0  0  0  0  0
  -18.5780  -15.2110   35.5640 C   0  0  0  0  0  0  0  0  0  0  0  0
  -17.1040  -15.3530   35.8010 N   0  0  0  0  0  0  0  0  0  0  0  0
  -16.3850  -14.6340   34.6990 C   0  0  0  0  0  0  0  0  0  0  0  0
  -14.9250  -14.4370   34.4140 C   0  0  0  0  0  0  0  0  0  0  0  0
  -14.4950  -13.6540   33.2090 C   0  0  0  0  0  0  0  0  0  0  0  0
  -17.6930  -12.8600   31.9420 H   0  0  0  0  0  0  0  0  0  0  0  0
  -19.3280  -15.6000   36.1550 H   0  0  0  0  0  0  0  0  0  0  0  0
  -14.2170  -14.8400   35.0460 H   0  0  0  0  0  0  0  0  0  0  0  0
  -15.0950  -12.2840   31.0840 O   0  0  0  0  0  0  0  0  0  0  0  0
  -16.1220  -11.6180   30.2180 C   0  0  0  0  0  0  0  0  0  0  0  0
  -17.1610  -11.7020   30.4580 H   0  0  0  0  0  0  0  0  0  0  0  0
  -15.8150  -11.0590   29.3580 H   0  0  0  0  0  0  0  0  0  0  0  0
  -16.8550  -11.1430   29.5990 H   0  0  0  0  0  0  0  0  0  0  0  0
  -13.0360  -13.4570   32.9230 O   0  0  0  0  0  0  0  0  0  0  0  0
  -12.0820  -14.6040   33.0730 C   0  0  0  0  0  0  0  0  0  0  0  0
  -11.0400  -14.4640   32.8690 H   0  0  0  0  0  0  0  0  0  0  0  0
  -12.4410  -15.5630   33.3830 H   0  0  0  0  0  0  0  0  0  0  0  0
  -11.4010  -15.4230   33.1800 H   0  0  0  0  0  0  0  0  0  0  0  0
  -16.3960  -17.8910   40.3780 C   0  0  0  0  0  0  0  0  0  0  0  0
  -15.7120  -19.1760   40.7390 N   0  0  0  0  0  0  0  0  0  0  0  0
  -17.3400  -17.2450   41.3480 O   0  0  0  0  0  0  0  0  0  0  0  0
  -15.0920  -19.6010   40.1030 H   0  0  0  0  0  0  0  0  0  0  0  0
  -15.8820  -19.5950   41.6140 H   0  0  0  0  0  0  0  0  0  0  0  0
  -13.5110  -17.7220   38.8620 O   0  0  0  0  0  0  0  0  0  0  0  0
  -12.3110  -16.8280   38.9710 C   0  0  0  0  0  0  0  0  0  0  0  0
  -12.1980  -16.1870   39.8200 H   0  0  0  0  0  0  0  0  0  0  0  0
  -11.4560  -16.1900   39.0500 H   0  0  0  0  0  0  0  0  0  0  0  0
  -11.2710  -16.8330   37.8920 C   0  0  0  0  0  0  0  0  0  0  0  0
  -11.3080  -16.0260   36.6270 C   0  0  0  0  0  0  0  0  0  0  0  0
  -10.0700  -16.3400   35.8410 C   0  0  0  0  0  0  0  0  0  0  0  0
   -9.2680  -17.3410   36.6170 C   0  0  0  0  0  0  0  0  0  0  0  0
  -10.0100  -17.6460   37.8850 S   0  0  0  0  0  0  0  0  0  0  0  0
  -12.0540  -15.3700   36.3490 H   0  0  0  0  0  0  0  0  0  0  0  0
   -9.8150  -15.9370   34.9250 H   0  0  0  0  0  0  0  0  0  0  0  0
   -8.3650  -17.7480   36.3310 H   0  0  0  0  0  0  0  0  0  0  0  0
  1  2  2  0
  1  5  1  0
  2  3  1  0
  3 34  1  0
  3  4  2  0
  4 29  1  0
  5  4  1  0
  6  2  1  0
  7  8  2  0
  7 15  1  0
  8  9  1  0
  9 10  1  0
  9 13  2  0
 10 11  2  0
 11 12  1  0
 11 17  1  0
 12  1  1  0
 13 12  1  0
 14 13  1  0
 14 18  1  0
 15 14  2  0
 16  8  1  0
 19  7  1  0
 20 21  1  0
 20 19  1  0
 22 20  1  0
 23 20  1  0
 24 25  1  0
 24 15  1  0
 25 28  1  0
 25 27  1  0
 26 25  1  0
 29 30  1  0
 29 31  2  0
 30 33  1  0
 32 30  1  0
 34 35  1  0
 35 37  1  0
 35 36  1  0
 38 35  1  0
 39 38  2  0
 40 41  2  0
 40 39  1  0
 41 42  1  0
 42 38  1  0
 43 39  1  0
 44 40  1  0
 45 41  1  0
M  END
>  <minimizedAffinity>  (47) 
-8.6954565

$$$$

     RDKit          3D

 33 33  0  0  0  0  0  0  0  0999 V2000
  -13.0680  -15.4980   35.9560 C   0  0  0  0  0  0  0  0  0  0  0  0
  -14.3730  -15.5330   36.6950 C   0  0  0  0  0  0  0  0  0  0  0  0
  -15.3950  -14.8190   35.8620 N   0  0  0  0  0  0  0  0  0  0  0  0
  -14.7220  -14.3410   34.6090 C   0  0  0  0  0  3  0  0  0  0  0  0
  -13.2830  -14.7620   34.6680 N   0  0  0  0  0  0  0  0  0  0  0  0
  -12.6100  -14.2850   33.4150 C   0  0  0  0  0  3  0  0  0  0  0  0
  -13.6320  -13.5690   32.5820 C   0  0  0  0  0  2  0  0  0  0  0  0
  -14.9370  -13.6050   33.3200 S   0  0  0  0  0 15  0  0  0  0  0  0
  -11.5800  -14.4290   33.1610 H   0  0  0  0  0  0  0  0  0  0  0  0
  -12.2790  -13.8820   32.4810 H   0  0  0  0  0  0  0  0  0  0  0  0
  -13.4600  -13.1150   31.6300 H   0  0  0  0  0  0  0  0  0  0  0  0
  -14.4680  -13.0960   32.1130 H   0  0  0  0  0  0  0  0  0  0  0  0
   -7.8910  -17.8840   37.8310 F   0  0  0  0  0  0  0  0  0  0  0  0
   -9.1850  -17.2880   37.3620 C   0  0  0  0  0  0  0  0  0  0  0  0
  -10.4770  -17.7070   37.9970 C   0  0  0  0  0  0  0  0  0  0  0  0
  -11.7720  -17.1100   37.5280 C   0  0  0  0  0  0  0  0  0  0  0  0
  -11.7730  -16.0950   36.4250 C   0  0  0  0  0  0  0  0  0  0  0  0
  -10.4800  -15.6750   35.7900 C   0  0  0  0  0  0  0  0  0  0  0  0
   -9.1860  -16.2720   36.2590 C   0  0  0  0  0  0  0  0  0  0  0  0
  -10.4770  -18.4060   38.7560 H   0  0  0  0  0  0  0  0  0  0  0  0
  -12.6610  -17.3990   37.9650 H   0  0  0  0  0  0  0  0  0  0  0  0
  -10.4810  -14.9750   35.0310 H   0  0  0  0  0  0  0  0  0  0  0  0
   -8.2970  -15.9830   35.8220 H   0  0  0  0  0  0  0  0  0  0  0  0
  -14.6140  -16.1710   38.0310 C   0  0  0  0  0  0  0  0  0  0  0  0
  -15.0980  -17.5890   38.1080 C   0  0  0  0  0  0  0  0  0  0  0  0
  -15.3390  -18.2270   39.4440 C   0  0  0  0  0  0  0  0  0  0  0  0
  -15.0960  -17.4470   40.7030 N   0  0  0  0  0  0  0  0  0  0  0  0
  -14.6120  -16.0290   40.6250 C   0  0  0  0  0  0  0  0  0  0  0  0
  -14.3700  -15.3910   39.2890 C   0  0  0  0  0  0  0  0  0  0  0  0
  -15.2650  -18.1250   37.2430 H   0  0  0  0  0  0  0  0  0  0  0  0
  -15.6720  -19.2020   39.4980 H   0  0  0  0  0  0  0  0  0  0  0  0
  -14.4450  -15.4940   41.4910 H   0  0  0  0  0  0  0  0  0  0  0  0
  -14.0380  -14.4160   39.2360 H   0  0  0  0  0  0  0  0  0  0  0  0
  1 17  1  0
  1  2  2  0
  2 24  1  0
  3  2  1  0
  4  5  1  0
  4  3  2  0
  5  1  1  0
  6  5  1  0
  9  6  1  0
 10  6  1  0
 11  7  1  0
 12  7  1  0
 14 13  1  0
 14 15  1  0
 15 20  1  0
 16 21  1  0
 16 15  2  0
 17 16  1  0
 18 19  1  0
 18 17  2  0
 19 14  2  0
 22 18  1  0
 23 19  1  0
 24 25  2  0
 24 29  1  0
 25 26  1  0
 26 31  1  0
 26 27  2  0
 28 27  1  0
 28 32  1  0
 29 28  2  0
 30 25  1  0
 33 29  1  0
M  END
>  <minimizedAffinity>  (48) 
-8.30151081

$$$$

     RDKit          3D

 51 54  0  0  0  0  0  0  0  0999 V2000
  -16.1320  -15.9050   38.4430 C   0  0  0  0  0  0  0  0  0  0  0  0
  -14.9810  -16.7490   37.9830 C   0  0  0  0  0  0  0  0  0  0  0  0
  -13.8980  -16.6580   39.0170 C   0  0  0  0  0  0  0  0  0  0  0  0
  -14.3800  -15.7580   40.1150 C   0  0  0  0  0  0  0  0  0  0  0  0
  -15.7620  -15.2920   39.7600 S   0  0  0  0  0  0  0  0  0  0  0  0
  -14.9410  -17.2960   37.1090 H   0  0  0  0  0  0  0  0  0  0  0  0
  -18.5090  -14.1100   33.6710 C   0  0  0  0  0  0  0  0  0  0  0  0
  -19.5100  -14.6110   34.6700 C   0  0  0  0  0  0  0  0  0  0  0  0
  -19.0470  -15.1280   36.0000 C   0  0  0  0  0  0  0  0  0  0  0  0
  -19.7950  -15.6820   37.1770 N   0  0  0  0  0  0  0  0  0  0  0  0
  -18.7940  -16.0400   38.2350 C   0  0  0  0  0  0  0  0  0  0  0  0
  -17.4280  -15.7080   37.7120 N   0  0  0  0  0  0  0  0  0  0  0  0
  -17.5850  -15.1440   36.3310 C   0  0  0  0  0  0  0  0  0  0  0  0
  -16.5840  -14.6430   35.3310 C   0  0  0  0  0  0  0  0  0  0  0  0
  -17.0470  -14.1260   34.0020 C   0  0  0  0  0  0  0  0  0  0  0  0
  -20.5170  -14.6000   34.4420 H   0  0  0  0  0  0  0  0  0  0  0  0
  -19.0070  -16.4440   39.1600 H   0  0  0  0  0  0  0  0  0  0  0  0
  -15.5780  -14.6540   35.5590 H   0  0  0  0  0  0  0  0  0  0  0  0
  -18.9720  -13.5930   32.3410 O   0  0  0  0  0  0  0  0  0  0  0  0
  -19.1420  -12.1180   32.1280 C   0  0  0  0  0  0  0  0  0  0  0  0
  -18.9340  -11.4350   32.9240 H   0  0  0  0  0  0  0  0  0  0  0  0
  -19.4720  -11.7490   31.1790 H   0  0  0  0  0  0  0  0  0  0  0  0
  -19.2640  -11.0650   31.9750 H   0  0  0  0  0  0  0  0  0  0  0  0
  -16.0460  -13.6250   33.0020 O   0  0  0  0  0  0  0  0  0  0  0  0
  -14.6260  -13.3860   33.4200 C   0  0  0  0  0  0  0  0  0  0  0  0
  -13.9110  -13.0280   32.7070 H   0  0  0  0  0  0  0  0  0  0  0  0
  -14.3250  -13.5720   34.4300 H   0  0  0  0  0  0  0  0  0  0  0  0
  -13.6120  -13.2150   33.7170 H   0  0  0  0  0  0  0  0  0  0  0  0
  -13.6160  -15.3880   41.3520 C   0  0  0  0  0  0  0  0  0  0  0  0
  -12.6470  -16.3620   41.9540 N   0  0  0  0  0  0  0  0  0  0  0  0
  -13.8200  -14.0440   41.9860 O   0  0  0  0  0  0  0  0  0  0  0  0
  -12.5120  -17.2440   41.5380 H   0  0  0  0  0  0  0  0  0  0  0  0
  -12.1450  -16.1190   42.7660 H   0  0  0  0  0  0  0  0  0  0  0  0
  -12.5660  -17.3460   38.9620 O   0  0  0  0  0  0  0  0  0  0  0  0
  -11.3370  -16.5740   38.5840 C   0  0  0  0  0  0  0  0  0  0  0  0
  -10.6950  -16.1850   39.3460 H   0  0  0  0  0  0  0  0  0  0  0  0
  -10.4600  -16.0230   38.3150 H   0  0  0  0  0  0  0  0  0  0  0  0
  -11.0080  -16.3470   37.1390 C   0  0  0  0  0  0  0  0  0  0  0  0
  -12.0390  -15.7660   36.2170 C   0  0  0  0  0  0  0  0  0  0  0  0
  -11.7090  -15.5390   34.7710 C   0  0  0  0  0  0  0  0  0  0  0  0
  -10.3490  -15.8930   34.2480 C   0  0  0  0  0  0  0  0  0  0  0  0
   -9.3180  -16.4730   35.1690 C   0  0  0  0  0  0  0  0  0  0  0  0
   -9.6470  -16.7000   36.6150 C   0  0  0  0  0  0  0  0  0  0  0  0
  -12.9750  -15.5230   36.5770 H   0  0  0  0  0  0  0  0  0  0  0  0
  -12.4190  -15.1400   34.1370 H   0  0  0  0  0  0  0  0  0  0  0  0
  -10.1220  -15.7360   33.2530 H   0  0  0  0  0  0  0  0  0  0  0  0
   -8.3820  -16.7160   34.8100 H   0  0  0  0  0  0  0  0  0  0  0  0
   -8.6170  -17.2810   37.5370 C   0  0  0  0  0  0  0  0  0  0  0  0
   -7.5850  -17.8620   38.4600 F   0  0  0  0  0  0  0  0  0  0  0  0
   -8.9800  -18.6600   37.0750 F   0  0  0  0  0  0  0  0  0  0  0  0
   -8.2530  -15.9010   37.9990 F   0  0  0  0  0  0  0  0  0  0  0  0
  1  5  1  0
  2  1  2  0
  2  3  1  0
  3  4  2  0
  4 29  1  0
  5  4  1  0
  6  2  1  0
  7 15  2  0
  7  8  1  0
  8  9  2  0
  9 13  1  0
  9 10  1  0
 10 11  2  0
 11 17  1  0
 12 11  1  0
 12  1  1  0
 13 12  1  0
 14 18  1  0
 14 13  2  0
 15 14  1  0
 16  8  1  0
 19  7  1  0
 20 19  1  0
 20 21  1  0
 22 20  1  0
 23 20  1  0
 24 25  1  0
 24 15  1  0
 25 28  1  0
 25 27  1  0
 26 25  1  0
 29 30  1  0
 29 31  2  0
 30 33  1  0
 32 30  1  0
 34  3  1  0
 35 34  1  0
 35 36  1  0
 37 35  1  0
 38 35  1  0
 39 44  1  0
 39 38  2  0
 40 39  1  0
 41 40  2  0
 41 42  1  0
 42 43  2  0
 43 38  1  0
 43 48  1  0
 45 40  1  0
 46 41  1  0
 47 42  1  0
 48 51  1  0
 48 49  1  0
 50 48  1  0
M  END
>  <minimizedAffinity>  (49) 
-9.7992363

$$$$

     RDKit          3D

 48 50  0  0  0  0  0  0  0  0999 V2000
  -15.5880  -15.7990   36.3260 C   0  0  0  0  0  0  0  0  0  0  0  0
  -17.0390  -16.0440   36.6130 C   0  0  0  0  0  0  0  0  0  0  0  0
  -18.0910  -15.3910   35.7650 C   0  0  0  0  0  0  0  0  0  0  0  0
  -17.6910  -14.4940   34.6320 N   0  0  0  0  0  0  0  0  0  0  0  0
  -16.2390  -14.2500   34.3450 C   0  0  0  0  0  0  0  0  0  0  0  0
  -15.8390  -13.3530   33.2120 N   0  0  0  0  0  0  0  0  0  0  0  0
  -15.1880  -14.9030   35.1930 N   0  0  0  0  0  0  0  0  0  0  0  0
  -17.3150  -16.6600   37.3930 H   0  0  0  0  0  0  0  0  0  0  0  0
  -19.0910  -15.5590   35.9630 H   0  0  0  0  0  0  0  0  0  0  0  0
  -14.8860  -13.1930   33.0240 H   0  0  0  0  0  0  0  0  0  0  0  0
  -10.0630  -16.5850   37.0270 C   0  0  0  0  0  0  0  0  0  0  0  0
  -10.7330  -15.7880   35.9470 C   0  0  0  0  0  0  0  0  0  0  0  0
  -12.2290  -15.6840   35.9100 C   0  0  0  0  0  0  0  0  0  0  0  0
  -13.0540  -16.3750   36.9540 C   0  0  0  0  0  0  0  0  0  0  0  0
  -14.5360  -16.4520   37.1740 C   0  0  0  0  0  0  0  0  0  0  0  0
  -14.7820  -17.2960   38.3900 C   0  0  0  0  0  0  0  0  0  0  0  0
  -13.4520  -17.7410   38.9220 N   0  0  0  0  0  0  0  0  0  0  0  0
  -12.3840  -17.1720   38.0340 N   0  0  0  0  0  0  0  0  0  0  0  0
  -10.8880  -17.2760   38.0710 N   0  0  0  0  0  2  0  0  0  0  0  0
  -10.1650  -15.3120   35.2280 H   0  0  0  0  0  0  0  0  0  0  0  0
  -12.6900  -15.1360   35.1670 H   0  0  0  0  0  0  0  0  0  0  0  0
  -15.7040  -17.5290   38.7900 H   0  0  0  0  0  0  0  0  0  0  0  0
   -8.5670  -16.6890   37.0630 O   0  0  0  0  0  0  0  0  0  0  0  0
   -7.8550  -16.8190   38.3770 C   0  0  0  0  0  3  0  0  0  0  0  0
   -7.6870  -15.9530   38.9830 H   0  0  0  0  0  0  0  0  0  0  0  0
   -8.1950  -15.8600   38.0450 H   0  0  0  0  0  0  0  0  0  0  0  0
   -7.3800  -18.1640   38.8430 C   0  0  0  0  0  0  0  0  0  0  0  0
   -6.8730  -18.2560   39.7800 H   0  0  0  0  0  0  0  0  0  0  0  0
   -7.5480  -19.0300   38.2370 H   0  0  0  0  0  0  0  0  0  0  0  0
   -7.0410  -19.1230   39.1750 H   0  0  0  0  0  0  0  0  0  0  0  0
  -16.8910  -12.7000   32.3640 C   0  0  0  0  0  0  0  0  0  0  0  0
  -17.6810  -11.5470   32.9060 C   0  0  0  0  0  0  0  0  0  0  0  0
  -18.7330  -10.8940   32.0580 C   0  0  0  0  0  0  0  0  0  0  0  0
  -18.9940  -11.3950   30.6690 C   0  0  0  0  0  0  0  0  0  0  0  0
  -18.2040  -12.5500   30.1270 C   0  0  0  0  0  0  0  0  0  0  0  0
  -17.1520  -13.2020   30.9750 C   0  0  0  0  0  0  0  0  0  0  0  0
  -17.5010  -11.2010   33.8620 H   0  0  0  0  0  0  0  0  0  0  0  0
  -19.7180  -10.9460   30.0860 H   0  0  0  0  0  0  0  0  0  0  0  0
  -16.6080  -13.9960   30.6020 H   0  0  0  0  0  0  0  0  0  0  0  0
  -18.4660  -13.0510   28.7380 C   0  0  0  0  0  0  0  0  0  0  0  0
  -18.7280  -13.5520   27.3490 F   0  0  0  0  0  0  0  0  0  0  0  0
  -17.4840  -12.0560   28.1930 F   0  0  0  0  0  0  0  0  0  0  0  0
  -19.4470  -14.0460   29.2830 F   0  0  0  0  0  0  0  0  0  0  0  0
  -19.5220   -9.7400   32.6010 O   0  0  0  0  0  0  0  0  0  0  0  0
  -19.7130   -9.5910   34.0810 C   0  0  0  0  0  0  0  0  0  0  0  0
  -19.2860  -10.3070   34.7500 H   0  0  0  0  0  0  0  0  0  0  0  0
  -20.2770   -8.7670   34.4680 H   0  0  0  0  0  0  0  0  0  0  0  0
  -19.8490   -9.4840   35.1370 H   0  0  0  0  0  0  0  0  0  0  0  0
  1  2  1  0
  1 15  1  0
  2  8  1  0
  3  9  1  0
  3  2  2  0
  4  3  1  0
  5  4  2  0
  5  7  1  0
  6  5  1  0
  7  1  2  0
 10  6  1  0
 11 23  2  0
 11 19  1  0
 12 11  1  0
 13 12  2  0
 13 14  1  0
 14 15  2  0
 14 18  1  0
 15 16  1  0
 16 22  1  0
 16 17  2  0
 18 19  1  0
 18 17  1  0
 20 12  1  0
 21 13  1  0
 24 27  1  0
 24 25  1  0
 26 24  1  0
 27 30  1  0
 27 28  1  0
 29 27  1  0
 31 32  1  0
 31  6  1  0
 32 37  1  0
 33 44  1  0
 33 32  2  0
 34 33  1  0
 35 34  2  0
 35 36  1  0
 36 31  2  0
 38 34  1  0
 39 36  1  0
 40 43  1  0
 40 35  1  0
 41 40  1  0
 42 40  1  0
 44 45  1  0
 45 47  1  0
 45 46  1  0
 45 48  1  0
M  END
>  <minimizedAffinity>  (50) 
-8.93687153

$$$$

     RDKit          3D

 67 66  0  0  1  0  0  0  0  0999 V2000
  -15.4380  -14.0690   34.0790 C   0  0  0  0  0  0  0  0  0  0  0  0
  -14.9730  -14.5130   35.4350 C   0  0  0  0  0  0  0  0  0  0  0  0
  -13.5220  -14.8060   35.6700 C   0  0  0  0  0  0  0  0  0  0  0  0
  -12.5350  -14.6560   34.5500 C   0  0  0  0  0  0  0  0  0  0  0  0
  -13.0000  -14.2120   33.1950 C   0  0  0  0  0  0  0  0  0  0  0  0
  -14.4530  -13.9180   32.9590 C   0  0  0  0  0  0  0  0  0  0  0  0
  -15.6520  -14.6160   36.2050 H   0  0  0  0  0  0  0  0  0  0  0  0
  -13.2010  -15.1120   36.6020 H   0  0  0  0  0  0  0  0  0  0  0  0
  -14.7730  -13.6130   32.0270 H   0  0  0  0  0  0  0  0  0  0  0  0
  -11.0830  -14.9490   34.7850 N   0  0  0  0  0  0  0  0  0  0  0  0
  -10.6660  -15.7730   35.9680 C   0  0  0  0  0  0  0  0  0  0  0  0
  -11.7010  -16.3020   36.9150 N   0  0  0  0  0  0  0  0  0  0  0  0
  -11.2860  -17.1250   38.0980 C   0  0  0  0  0  3  0  0  0  0  0  0
   -9.8340  -17.4190   38.3330 C   0  0  0  0  0  0  0  0  0  0  0  0
   -9.1280  -18.1960   39.4050 C   0  0  0  0  0  0  0  0  0  0  0  0
   -7.6550  -18.1470   39.1200 C   0  0  0  0  0  0  0  0  0  0  0  0
   -7.4520  -17.3400   37.8730 N   0  0  0  0  0  0  0  0  0  0  0  0
   -8.7980  -16.8900   37.3870 C   0  0  0  0  0  0  0  0  0  0  0  0
   -9.2150  -16.0660   36.2040 N   0  0  0  0  0  2  0  0  0  0  0  0
  -10.4030  -14.6020   34.1640 H   0  0  0  0  0  0  0  0  0  0  0  0
   -9.5760  -18.6800   40.1990 H   0  0  0  0  0  0  0  0  0  0  0  0
   -6.9130  -18.5900   39.6830 H   0  0  0  0  0  0  0  0  0  0  0  0
   -6.5860  -17.1400   37.4470 H   0  0  0  0  0  0  0  0  0  0  0  0
  -12.3210  -17.6550   39.0460 N   0  0  0  0  0  0  0  0  0  0  0  0
  -12.0730  -18.3280   39.7190 H   0  0  0  0  0  0  0  0  0  0  0  0
  -13.7350  -17.1580   38.9660 C   0  0  0  0  0  0  0  0  0  0  0  0
  -14.6620  -17.7000   37.9200 C   0  0  0  0  0  0  0  0  0  0  0  0
  -16.0750  -17.2030   37.8410 C   0  0  0  0  0  0  0  0  0  0  0  0
  -16.5600  -16.1650   38.8070 C   0  0  0  0  0  0  0  0  0  0  0  0
  -15.6320  -15.6230   39.8540 C   0  0  0  0  0  0  0  0  0  0  0  0
  -14.2190  -16.1200   39.9330 C   0  0  0  0  0  0  0  0  0  0  0  0
  -14.3280  -18.4150   37.2540 H   0  0  0  0  0  0  0  0  0  0  0  0
  -16.7140  -17.5760   37.1200 H   0  0  0  0  0  0  0  0  0  0  0  0
  -17.5320  -15.8220   38.7530 H   0  0  0  0  0  0  0  0  0  0  0  0
  -15.9660  -14.9070   40.5200 H   0  0  0  0  0  0  0  0  0  0  0  0
  -13.2910  -15.5780   40.9800 C   0  0  0  0  0  0  0  0  0  0  0  0
  -13.4200  -14.1530   41.4310 N   0  0  0  0  0  0  0  0  0  0  0  0
  -12.2340  -16.4600   41.5750 O   0  0  0  0  0  0  0  0  0  0  0  0
  -12.8110  -13.7970   42.1180 H   0  0  0  0  0  0  0  0  0  0  0  0
  -14.1140  -13.5740   41.0410 H   0  0  0  0  0  0  0  0  0  0  0  0
  -18.7910  -12.9260   32.2900 N   0  0  0  0  0  1  0  0  0  0  0  0
  -19.7950  -13.1870   33.3730 C   0  0  0  0  0  3  0  0  0  0  0  0
  -19.3460  -13.7430   34.6930 C   0  0  0  0  0  2  0  0  0  0  0  0
  -17.8940  -14.0360   34.9280 C   0  0  0  0  0  3  0  0  0  0  0  0
  -16.8910  -13.7750   33.8440 C   0  0  0  0  0  0  0  0  0  0  0  0
  -17.3390  -13.2200   32.5250 C   0  0  0  0  0  3  0  0  0  0  0  0
  -20.8310  -12.9780   33.2060 H   0  0  0  0  0  0  0  0  0  0  0  0
  -20.5110  -13.3740   34.1470 H   0  0  0  0  0  0  0  0  0  0  0  0
  -20.0620  -13.9290   35.4660 H   0  0  0  0  0  0  0  0  0  0  0  0
  -19.0250  -14.1390   35.6340 H   0  0  0  0  0  0  0  0  0  0  0  0
  -17.5850  -14.4180   35.8360 H   0  0  0  0  0  0  0  0  0  0  0  0
  -16.6240  -13.0330   31.7510 H   0  0  0  0  0  0  0  0  0  0  0  0
  -17.6600  -12.8240   31.5840 H   0  0  0  0  0  0  0  0  0  0  0  0
  -19.2400  -12.3710   30.9700 C   0  0  0  0  0  2  0  0  0  0  0  0
  -19.3380  -11.3130   30.8410 H   0  0  0  0  0  0  0  0  0  0  0  0
  -19.0170  -11.7100   31.7820 H   0  0  0  0  0  0  0  0  0  0  0  0
  -19.5530  -13.2980   29.8340 C   0  0  0  0  0  3  0  0  0  0  0  0
  -20.3790  -13.9740   29.9060 H   0  0  0  0  0  0  0  0  0  0  0  0
  -20.1560  -13.3120   30.7170 H   0  0  0  0  0  0  0  0  0  0  0  0
  -18.7060  -13.2780   28.5950 C   0  0  0  0  0  0  0  0  0  0  0  0
  -18.9290  -13.9400   27.7840 H   0  0  0  0  0  0  0  0  0  0  0  0
  -17.8800  -12.6030   28.5240 H   0  0  0  0  0  0  0  0  0  0  0  0
  -18.1020  -13.2640   27.7120 H   0  0  0  0  0  0  0  0  0  0  0  0
  -12.0140  -14.0610   32.0750 C   0  0  0  0  0  0  0  0  0  0  0  0
  -10.9780  -14.2710   32.2430 H   0  0  0  0  0  0  0  0  0  0  0  0
  -12.3450  -13.7450   31.1080 H   0  0  0  0  0  0  0  0  0  0  0  0
  -11.3100  -13.9540   31.2770 H   0  0  0  0  0  0  0  0  0  0  0  0
  1  2  1  0
  2  3  2  0
  2  7  1  0
  3  8  1  0
  4 10  1  0
  4  3  1  0
  5  4  2  0
  6  5  1  0
  6  1  2  0
  9  6  1  0
 10 11  1  0
 11 19  1  0
 11 12  2  0
 12 13  1  0
 13 14  1  0
 13 24  1  0
 14 15  1  0
 15 21  1  0
 16 15  2  0
 16 22  1  0
 17 16  1  0
 18 17  1  0
 18 14  2  0
 19 18  1  0
 20 10  1  0
 23 17  1  0
 24 25  1  0
 26 24  1  0
 26 31  1  0
 27 26  2  0
 28 27  1  0
 28 29  2  0
 29 30  1  0
 30 31  2  0
 30 35  1  0
 31 36  1  0
 32 27  1  0
 33 28  1  0
 34 29  1  0
 36 37  1  0
 36 38  2  0
 37 39  1  0
 40 37  1  0
 41 42  1  0
 42 48  1  0
 43 49  1  0
 43 50  1  0
 44 51  1  0
 45  1  1  0
 45 44  2  0
 46 45  1  0
 47 42  1  0
 52 46  1  0
 53 46  1  0
 54 56  1  0
 55 54  1  0
 57 58  1  0
 57 59  1  0
 60 57  1  0
 61 60  1  0
 62 60  1  0
 63 60  1  0
 64 65  1  0
 64  5  1  0
 66 64  1  0
 67 64  1  0
M  END
>  <minimizedAffinity>  (51) 
-8.99781418

$$$$

     RDKit          3D

 46 49  0  0  0  0  0  0  0  0999 V2000
  -12.4570  -15.6530   35.9560 C   0  0  0  0  0  0  0  0  0  0  0  0
  -12.2810  -14.9040   34.6680 C   0  0  0  0  0  0  0  0  0  0  0  0
  -13.4750  -14.3260   33.9680 C   0  0  0  0  0  0  0  0  0  0  0  0
  -13.3000  -13.5770   32.6800 C   0  0  0  0  0  0  0  0  0  0  0  0
  -14.4940  -12.9980   31.9800 C   0  0  0  0  0  0  0  0  0  0  0  0
  -15.8630  -13.1680   32.5680 N   0  0  0  0  0  0  0  0  0  0  0  0
  -16.0380  -13.9170   33.8560 C   0  0  0  0  0  0  0  0  0  0  0  0
  -14.8450  -14.4950   34.5560 C   0  0  0  0  0  0  0  0  0  0  0  0
  -15.0200  -15.2440   35.8440 C   0  0  0  0  0  0  0  0  0  0  0  0
  -13.8260  -15.8230   36.5440 C   0  0  0  0  0  0  0  0  0  0  0  0
  -11.3390  -14.7870   34.2630 H   0  0  0  0  0  0  0  0  0  0  0  0
  -12.3580  -13.4600   32.2750 H   0  0  0  0  0  0  0  0  0  0  0  0
  -14.3730  -12.4830   31.0940 H   0  0  0  0  0  0  0  0  0  0  0  0
  -16.9810  -14.0340   34.2610 H   0  0  0  0  0  0  0  0  0  0  0  0
  -15.9620  -15.3610   36.2490 H   0  0  0  0  0  0  0  0  0  0  0  0
   -8.8750  -17.3890   38.0550 C   0  0  0  0  0  0  0  0  0  0  0  0
   -8.8990  -17.3040   36.5580 C   0  0  0  0  0  0  0  0  0  0  0  0
  -10.0920  -16.7250   35.8580 C   0  0  0  0  0  0  0  0  0  0  0  0
  -11.2630  -16.2310   36.6550 C   0  0  0  0  0  0  0  0  0  0  0  0
  -11.2400  -16.3160   38.1530 C   0  0  0  0  0  0  0  0  0  0  0  0
  -10.0460  -16.8950   38.8530 C   0  0  0  0  0  0  0  0  0  0  0  0
   -8.0930  -17.6440   36.0090 H   0  0  0  0  0  0  0  0  0  0  0  0
  -10.1090  -16.6670   34.8280 H   0  0  0  0  0  0  0  0  0  0  0  0
  -12.0450  -15.9770   38.7020 H   0  0  0  0  0  0  0  0  0  0  0  0
  -10.0300  -16.9530   39.8830 H   0  0  0  0  0  0  0  0  0  0  0  0
   -7.6810  -17.9670   38.7550 S   0  0  2  0  0  0  0  0  0  0  0  0
   -8.4060  -19.2710   38.9140 O   0  0  0  0  0  0  0  0  0  0  0  0
   -6.9560  -16.6640   38.5960 O   0  0  0  0  0  0  0  0  0  0  0  0
   -6.4870  -18.5460   39.4550 N   0  0  0  0  0  0  0  0  0  0  0  0
   -6.5080  -19.5110   39.7870 H   0  0  0  0  0  0  0  0  0  0  0  0
   -5.6550  -17.9750   39.5990 H   0  0  0  0  0  0  0  0  0  0  0  0
  -14.0020  -16.5710   37.8320 O   0  0  0  0  0  0  0  0  0  0  0  0
  -15.0030  -17.6840   37.9220 C   0  0  0  0  0  0  0  0  0  0  0  0
  -14.8810  -18.5640   37.3250 H   0  0  0  0  0  0  0  0  0  0  0  0
  -15.7170  -18.4790   37.9860 H   0  0  0  0  0  0  0  0  0  0  0  0
  -16.1760  -17.5650   38.8490 C   0  0  0  0  0  0  0  0  0  0  0  0
  -16.0530  -18.0110   40.2760 C   0  0  0  0  0  0  0  0  0  0  0  0
  -17.2260  -17.8910   41.2030 C   0  0  0  0  0  0  0  0  0  0  0  0
  -18.5220  -17.3260   40.7030 C   0  0  0  0  0  0  0  0  0  0  0  0
  -18.6460  -16.8800   39.2760 C   0  0  0  0  0  0  0  0  0  0  0  0
  -17.4720  -16.9990   38.3490 C   0  0  0  0  0  0  0  0  0  0  0  0
  -15.1610  -18.4000   40.6190 H   0  0  0  0  0  0  0  0  0  0  0  0
  -17.1420  -18.1980   42.1840 H   0  0  0  0  0  0  0  0  0  0  0  0
  -19.3300  -17.2430   41.3410 H   0  0  0  0  0  0  0  0  0  0  0  0
  -19.5380  -16.4910   38.9320 H   0  0  0  0  0  0  0  0  0  0  0  0
  -17.5570  -16.6920   37.3670 H   0  0  0  0  0  0  0  0  0  0  0  0
  1 10  1  0
  1 19  1  0
  2  1  2  0
  3  8  1  0
  3  2  1  0
  4  3  2  0
  5  6  2  0
  5  4  1  0
  6  7  1  0
  7 14  1  0
  7  8  2  0
  8  9  1  0
  9 15  1  0
  9 10  2  0
 10 32  1  0
 11  2  1  0
 12  4  1  0
 13  5  1  0
 16 26  1  0
 16 21  1  0
 17 16  2  0
 18 17  1  0
 18 19  2  0
 19 20  1  0
 20 24  1  0
 20 21  2  0
 21 25  1  0
 22 17  1  0
 23 18  1  0
 26 27  2  0
 26 29  1  0
 28 26  2  0
 29 31  1  0
 29 30  1  0
 32 33  1  0
 33 35  1  0
 33 36  1  0
 34 33  1  0
 36 37  1  0
 37 42  1  0
 37 38  2  0
 38 43  1  0
 39 38  1  0
 39 44  1  0
 40 39  2  0
 41 36  2  0
 41 40  1  0
 45 40  1  0
 46 41  1  0
M  END
>  <minimizedAffinity>  (52) 
-10.7114601

$$$$

     RDKit          3D

 47 44  0  0  0  0  0  0  0  0999 V2000
  -17.6180  -14.1480   34.5170 C   0  0  0  0  0  2  0  0  0  0  0  0
  -18.5690  -14.5820   35.5930 O   0  0  0  0  0  1  0  0  0  0  0  0
  -16.1540  -14.4490   34.6440 N   0  0  0  0  0  0  0  0  0  0  0  0
  -15.6400  -15.1820   35.8460 C   0  0  0  0  0  0  0  0  0  0  0  0
  -16.4660  -15.6760   36.9970 N   0  0  0  0  0  0  0  0  0  0  0  0
  -15.5470  -16.3510   37.9730 N   0  0  0  0  0  0  0  0  0  0  0  0
  -14.1530  -16.2740   37.4240 C   0  0  0  0  0  0  0  0  0  0  0  0
  -12.8390  -16.7680   37.9520 N   0  0  0  0  0  0  0  0  0  0  0  0
  -11.5820  -16.5400   37.1660 C   0  0  0  0  0  0  0  0  0  0  0  0
  -11.6390  -15.8180   35.8520 C   0  0  0  0  0  0  0  0  0  0  0  0
  -10.3830  -15.5900   35.0660 Br  0  0  0  0  0  0  0  0  0  0  0  0
  -12.9540  -15.3240   35.3240 C   0  0  0  0  0  0  0  0  0  0  0  0
  -14.2110  -15.5520   36.1110 C   0  0  0  0  0  0  0  0  0  0  0  0
  -15.5300  -14.1640   33.9370 H   0  0  0  0  0  0  0  0  0  0  0  0
  -15.8130  -16.7700   38.8230 H   0  0  0  0  0  0  0  0  0  0  0  0
  -12.9930  -14.8270   34.4210 H   0  0  0  0  0  0  0  0  0  0  0  0
  -19.1590  -11.9470   30.9070 N   0  0  0  0  0  2  0  0  0  0  0  0
  -18.5280  -11.1870   32.0360 C   0  0  0  0  0  3  0  0  0  0  0  0
  -18.0140  -11.9210   33.2390 C   0  0  0  0  0  2  0  0  0  0  0  0
  -18.1320  -13.4140   33.3130 C   0  0  0  0  0  1  0  0  0  0  0  0
  -18.7630  -14.1740   32.1850 C   0  0  0  0  0  2  0  0  0  0  0  0
  -19.2770  -13.4410   30.9810 C   0  0  0  0  0  2  0  0  0  0  0  0
  -18.4440  -10.1220   31.9830 H   0  0  0  0  0  0  0  0  0  0  0  0
  -18.0780  -10.6450   32.8410 H   0  0  0  0  0  0  0  0  0  0  0  0
  -17.5640  -11.3790   34.0450 H   0  0  0  0  0  0  0  0  0  0  0  0
  -17.6480  -12.4440   34.0970 H   0  0  0  0  0  0  0  0  0  0  0  0
  -18.2150  -14.4800   33.3670 H   0  0  0  0  0  0  0  0  0  0  0  0
  -18.8470  -15.2400   32.2380 H   0  0  0  0  0  0  0  0  0  0  0  0
  -19.2130  -14.7160   31.3800 H   0  0  0  0  0  0  0  0  0  0  0  0
  -19.7270  -13.9830   30.1760 H   0  0  0  0  0  0  0  0  0  0  0  0
  -19.6430  -12.9170   30.1230 H   0  0  0  0  0  0  0  0  0  0  0  0
  -19.6730  -11.2130   29.7040 C   0  0  0  0  0  0  0  0  0  0  0  0
  -19.5890  -10.1480   29.6510 H   0  0  0  0  0  0  0  0  0  0  0  0
  -20.1230  -11.7560   28.8990 H   0  0  0  0  0  0  0  0  0  0  0  0
  -20.0390  -10.6900   28.8460 H   0  0  0  0  0  0  0  0  0  0  0  0
  -10.2680  -17.0340   37.6930 C   0  0  0  0  0  0  0  0  0  0  0  0
   -9.7930  -18.4150   37.3500 C   0  0  0  0  0  0  0  0  0  0  0  0
   -8.4790  -18.9090   37.8780 C   0  0  0  0  0  0  0  0  0  0  0  0
   -7.6390  -18.0220   38.7480 C   0  0  0  0  0  0  0  0  0  0  0  0
   -8.1130  -16.6410   39.0900 C   0  0  0  0  0  0  0  0  0  0  0  0
   -9.4270  -16.1470   38.5630 C   0  0  0  0  0  0  0  0  0  0  0  0
  -10.3720  -19.0260   36.7520 H   0  0  0  0  0  0  0  0  0  0  0  0
   -8.1530  -19.8600   37.6420 H   0  0  0  0  0  0  0  0  0  0  0  0
   -7.5350  -16.0300   39.6890 H   0  0  0  0  0  0  0  0  0  0  0  0
   -9.7530  -15.1970   38.7990 H   0  0  0  0  0  0  0  0  0  0  0  0
   -6.3240  -18.5160   39.2750 O   0  0  0  0  0  0  0  0  0  0  0  0
   -6.0280  -19.3790   39.0620 H   0  0  0  0  0  0  0  0  0  0  0  0
  1  3  1  0
  1  2  1  0
  3  4  1  0
  4 13  1  0
  4  5  2  0
  5  6  1  0
  6 15  1  0
  7  8  1  0
  7  6  1  0
  9 36  1  0
  9  8  2  0
 10  9  1  0
 11 10  1  0
 12 10  2  0
 12 13  1  0
 13  7  2  0
 14  3  1  0
 16 12  1  0
 17 18  1  0
 18 24  1  0
 19 25  1  0
 19 26  1  0
 20 27  1  0
 21 28  1  0
 23 18  1  0
 29 21  1  0
 30 22  1  0
 31 22  1  0
 32 17  1  0
 33 32  1  0
 34 32  1  0
 35 32  1  0
 36 41  1  0
 37 36  2  0
 37 38  1  0
 38 39  2  0
 39 40  1  0
 39 46  1  0
 40 44  1  0
 41 45  1  0
 41 40  2  0
 42 37  1  0
 43 38  1  0
 47 46  1  0
M  END
>  <minimizedAffinity>  (53) 
-9.13580227

$$$$

     RDKit          3D

 53 50  0  0  1  0  0  0  0  0999 V2000
  -15.7960  -15.3490   35.4810 C   0  0  0  0  0  3  0  0  0  0  0  0
  -17.1040  -15.0970   34.7880 N   0  0  0  0  0  0  0  0  0  0  0  0
  -18.2050  -15.3380   35.7770 C   0  0  0  0  0  0  0  0  0  0  0  0
  -17.5790  -15.7390   37.0800 N   0  0  0  0  0  0  0  0  0  0  0  0
  -16.0910  -15.7450   36.8980 C   0  0  0  0  0  0  0  0  0  0  0  0
  -19.2160  -15.2450   35.5930 H   0  0  0  0  0  0  0  0  0  0  0  0
  -18.3140  -16.0740   38.3450 C   0  0  0  0  0  1  0  0  0  0  0  0
  -18.3630  -17.4920   38.8290 C   0  0  0  0  0  2  0  0  0  0  0  0
  -19.0980  -17.8280   40.0940 C   0  0  0  0  0  2  0  0  0  0  0  0
  -19.7820  -16.7450   40.8730 N   0  0  0  0  0  1  0  0  0  0  0  0
  -19.7330  -15.3260   40.3890 C   0  0  0  0  0  2  0  0  0  0  0  0
  -18.9980  -14.9910   39.1240 C   0  0  0  0  0  2  0  0  0  0  0  0
  -18.8370  -16.3140   39.2460 H   0  0  0  0  0  0  0  0  0  0  0  0
  -17.8750  -18.2660   38.2740 H   0  0  0  0  0  0  0  0  0  0  0  0
  -18.3990  -18.5050   39.1750 H   0  0  0  0  0  0  0  0  0  0  0  0
  -19.1330  -18.8400   40.4400 H   0  0  0  0  0  0  0  0  0  0  0  0
  -19.6210  -18.0670   40.9950 H   0  0  0  0  0  0  0  0  0  0  0  0
  -20.2820  -16.9730   41.7330 H   0  0  0  0  0  0  0  0  0  0  0  0
  -20.2210  -14.5530   40.9440 H   0  0  0  0  0  0  0  0  0  0  0  0
  -19.6970  -14.3140   40.0420 H   0  0  0  0  0  0  0  0  0  0  0  0
  -18.9630  -13.9780   38.7780 H   0  0  0  0  0  0  0  0  0  0  0  0
  -18.4740  -14.7520   38.2220 H   0  0  0  0  0  0  0  0  0  0  0  0
  -10.3480  -14.8550   33.0170 F   0  0  0  0  0  0  0  0  0  0  0  0
  -11.7100  -14.9780   33.6330 C   0  0  0  0  0  0  0  0  0  0  0  0
  -12.7270  -15.8970   33.0250 C   0  0  0  0  0  0  0  0  0  0  0  0
  -14.0900  -16.0210   33.6410 C   0  0  0  0  0  0  0  0  0  0  0  0
  -14.4340  -15.2250   34.8650 C   0  0  0  0  0  0  0  0  0  0  0  0
  -13.4170  -14.3060   35.4730 C   0  0  0  0  0  0  0  0  0  0  0  0
  -12.0540  -14.1830   34.8570 C   0  0  0  0  0  0  0  0  0  0  0  0
  -12.4900  -16.4450   32.1830 H   0  0  0  0  0  0  0  0  0  0  0  0
  -14.7900  -16.6530   33.2220 H   0  0  0  0  0  0  0  0  0  0  0  0
  -13.6540  -13.7590   36.3150 H   0  0  0  0  0  0  0  0  0  0  0  0
  -11.3540  -13.5500   35.2760 H   0  0  0  0  0  0  0  0  0  0  0  0
  -15.0750  -16.0880   37.9460 C   0  0  0  0  0  0  0  0  0  0  0  0
  -15.2840  -15.6500   39.3650 C   0  0  0  0  0  0  0  0  0  0  0  0
  -14.2670  -15.9930   40.4140 C   0  0  0  0  0  3  0  0  0  0  0  0
  -13.0420  -16.7740   40.0420 N   0  0  0  0  0  0  0  0  0  0  0  0
  -12.8320  -17.2110   38.6230 C   0  0  0  0  0  0  0  0  0  0  0  0
  -13.8480  -16.8690   37.5750 N   0  0  0  0  0  0  0  0  0  0  0  0
  -16.1280  -15.1130   39.6210 H   0  0  0  0  0  0  0  0  0  0  0  0
  -14.4110  -15.6920   41.3900 H   0  0  0  0  0  0  0  0  0  0  0  0
  -11.6060  -17.9920   38.2520 O   0  0  0  0  0  0  0  0  0  0  0  0
  -10.2780  -17.3000   38.1550 C   0  0  0  0  0  0  0  0  0  0  0  0
   -9.1240  -17.7730   38.9880 C   0  0  0  0  0  0  0  0  0  0  0  0
   -7.7970  -17.0820   38.8910 C   0  0  0  0  0  0  0  0  0  0  0  0
   -7.6220  -15.9180   37.9610 C   0  0  0  0  0  0  0  0  0  0  0  0
   -6.2960  -15.2270   37.8640 Cl  0  0  0  0  0  0  0  0  0  0  0  0
   -8.7770  -15.4450   37.1270 C   0  0  0  0  0  0  0  0  0  0  0  0
  -10.1050  -16.1370   37.2250 C   0  0  0  0  0  0  0  0  0  0  0  0
   -9.2430  -18.5740   39.6280 H   0  0  0  0  0  0  0  0  0  0  0  0
   -7.0020  -17.4070   39.4640 H   0  0  0  0  0  0  0  0  0  0  0  0
   -8.6580  -14.6450   36.4880 H   0  0  0  0  0  0  0  0  0  0  0  0
  -10.8990  -15.8110   36.6510 H   0  0  0  0  0  0  0  0  0  0  0  0
  1 27  1  0
  1  5  1  0
  2  1  1  0
  2  3  2  0
  3  4  1  0
  5  4  2  0
  5 34  1  0
  6  3  1  0
  7 13  1  0
  8 15  1  0
  9 16  1  0
  9 17  1  0
 10 18  1  0
 11 19  1  0
 14  8  1  0
 20 11  1  0
 21 12  1  0
 22 12  1  0
 23 24  1  0
 24 29  1  0
 25 24  2  0
 25 26  1  0
 26 27  2  0
 27 28  1  0
 28 32  1  0
 29 33  1  0
 29 28  2  0
 30 25  1  0
 31 26  1  0
 34 35  2  0
 35 40  1  0
 35 36  1  0
 36 41  1  0
 37 36  1  0
 38 37  2  0
 39 34  1  0
 39 38  2  0
 42 38  1  0
 43 42  1  0
 43 44  1  0
 44 50  1  0
 45 44  2  0
 45 51  1  0
 46 45  1  0
 47 46  1  0
 48 49  1  0
 48 46  2  0
 49 43  2  0
 52 48  1  0
 53 49  1  0
M  END
>  <minimizedAffinity>  (54) 
-8.49520016

$$$$

     RDKit          3D

 36 37  0  0  0  0  0  0  0  0999 V2000
  -13.1460  -15.5860   36.2330 N   0  0  0  0  0  0  0  0  0  0  0  0
  -11.6600  -15.6610   36.0400 C   0  0  0  0  0  0  0  0  0  0  0  0
  -11.3240  -14.9830   34.7460 N   0  0  0  0  0  0  0  0  0  0  0  0
  -12.6020  -14.4870   34.1370 C   0  0  0  0  0  0  0  0  0  0  0  0
  -12.8870  -13.7440   32.8650 C   0  0  0  0  0  0  0  0  0  0  0  0
  -14.2970  -13.3740   32.5120 N   0  0  0  0  0  0  0  0  0  0  0  0
  -15.4220  -13.7470   33.4300 C   0  0  0  0  0  0  0  0  0  0  0  0
  -15.1380  -14.4890   34.7020 C   0  0  0  0  0  0  0  0  0  0  0  0
  -13.7280  -14.8590   35.0560 C   0  0  0  0  0  0  0  0  0  0  0  0
  -12.1120  -13.4880   32.2330 H   0  0  0  0  0  0  0  0  0  0  0  0
  -16.3930  -13.4920   33.1870 H   0  0  0  0  0  0  0  0  0  0  0  0
  -15.9130  -14.7460   35.3340 H   0  0  0  0  0  0  0  0  0  0  0  0
  -15.4520  -17.2430   39.7220 C   0  0  0  0  0  1  0  0  0  0  0  0
  -14.8580  -18.1730   38.7070 C   0  0  0  0  0  0  0  0  0  0  0  0
  -14.0890  -17.6200   37.5440 C   0  0  0  0  0  0  0  0  0  0  0  0
  -13.9140  -16.1380   37.3950 C   0  0  0  0  0  0  0  0  0  0  0  0
  -14.5090  -15.2080   38.4110 C   0  0  0  0  0  0  0  0  0  0  0  0
  -15.2780  -15.7600   39.5750 C   0  0  0  0  0  2  0  0  0  0  0  0
  -14.9770  -19.1930   38.8080 H   0  0  0  0  0  0  0  0  0  0  0  0
  -13.6800  -18.2600   36.8450 H   0  0  0  0  0  0  0  0  0  0  0  0
  -14.3890  -14.1880   38.3090 H   0  0  0  0  0  0  0  0  0  0  0  0
  -15.6870  -15.1210   40.2730 H   0  0  0  0  0  0  0  0  0  0  0  0
  -16.2210  -17.7950   40.8860 C   0  0  0  0  0  3  0  0  0  0  0  0
  -16.8700  -17.1580   41.4490 H   0  0  0  0  0  0  0  0  0  0  0  0
  -16.3220  -16.7640   40.6200 H   0  0  0  0  0  0  0  0  0  0  0  0
  -16.0790  -19.2410   41.2610 N   0  0  0  0  0  0  0  0  0  0  0  0
  -15.4600  -19.8490   40.7240 H   0  0  0  0  0  0  0  0  0  0  0  0
  -16.6020  -19.6170   42.0520 H   0  0  0  0  0  0  0  0  0  0  0  0
  -10.6820  -16.3040   36.9790 C   0  0  0  0  0  0  0  0  0  0  0  0
  -10.8460  -16.4430   38.4640 N   0  0  0  0  0  0  0  0  0  0  0  0
   -9.6330  -17.1450   39.0000 O   0  0  0  0  0  0  0  0  0  0  0  0
   -8.7200  -17.4390   37.8470 N   0  0  0  0  0  0  0  0  0  0  0  0
   -9.3680  -16.9190   36.5970 C   0  0  0  0  0  0  0  0  0  0  0  0
   -8.8020  -17.0000   35.2120 N   0  0  0  0  0  0  0  0  0  0  0  0
   -9.3050  -16.6280   34.4510 H   0  0  0  0  0  0  0  0  0  0  0  0
   -7.9270  -17.4250   35.0610 H   0  0  0  0  0  0  0  0  0  0  0  0
  1 16  1  0
  2  1  1  0
  2 29  1  0
  3  2  2  0
  4  3  1  0
  4  9  1  0
  5  4  2  0
  6  5  1  0
  6  7  2  0
  7  8  1  0
  8  9  2  0
  8 12  1  0
  9  1  1  0
 10  5  1  0
 11  7  1  0
 14 19  1  0
 14 13  1  0
 15 14  2  0
 16 15  1  0
 16 17  2  0
 17 18  1  0
 18 22  1  0
 20 15  1  0
 21 17  1  0
 23 26  1  0
 23 24  1  0
 25 23  1  0
 26 28  1  0
 27 26  1  0
 29 30  2  0
 30 31  1  0
 32 31  1  0
 33 29  1  0
 33 32  2  0
 34 33  1  0
 35 34  1  0
 36 34  1  0
M  END
>  <minimizedAffinity>  (55) 
-8.92017174

$$$$

     RDKit          3D

 48 52  0  0  0  0  0  0  0  0999 V2000
  -13.0270  -16.4600   38.0110 C   0  0  0  0  0  0  0  0  0  0  0  0
  -12.0910  -16.9370   39.0820 N   0  0  0  0  0  0  0  0  0  0  0  0
  -10.6880  -16.7700   38.5780 N   0  0  0  0  0  0  0  0  0  0  0  0
   -9.3560  -17.0720   39.2000 N   0  0  0  0  0  0  0  0  0  0  0  0
   -8.0940  -16.7940   38.4390 C   0  0  0  0  0  0  0  0  0  0  0  0
   -8.1620  -16.2140   37.0580 C   0  0  0  0  0  0  0  0  0  0  0  0
   -9.4940  -15.9120   36.4360 C   0  0  0  0  0  0  0  0  0  0  0  0
  -10.7570  -16.1910   37.1970 C   0  0  0  0  0  0  0  0  0  0  0  0
  -12.2030  -15.9990   36.8460 C   0  0  0  0  0  0  0  0  0  0  0  0
   -7.1770  -17.0010   38.8670 H   0  0  0  0  0  0  0  0  0  0  0  0
   -7.2930  -16.0220   36.5340 H   0  0  0  0  0  0  0  0  0  0  0  0
   -9.5410  -15.5140   35.4860 H   0  0  0  0  0  0  0  0  0  0  0  0
  -17.5200  -16.4200   38.2520 C   0  0  0  0  0  0  0  0  0  0  0  0
  -16.7260  -15.3060   38.8670 C   0  0  0  0  0  0  0  0  0  0  0  0
  -15.2280  -15.3200   38.7870 C   0  0  0  0  0  0  0  0  0  0  0  0
  -14.5250  -16.4470   38.0910 C   0  0  0  0  0  0  0  0  0  0  0  0
  -15.3190  -17.5600   37.4760 C   0  0  0  0  0  0  0  0  0  0  0  0
  -16.8160  -17.5470   37.5560 C   0  0  0  0  0  0  0  0  0  0  0  0
  -17.2100  -14.5300   39.3460 H   0  0  0  0  0  0  0  0  0  0  0  0
  -14.6820  -14.5530   39.2110 H   0  0  0  0  0  0  0  0  0  0  0  0
  -14.8340  -18.3360   36.9970 H   0  0  0  0  0  0  0  0  0  0  0  0
  -17.3630  -18.3140   37.1320 H   0  0  0  0  0  0  0  0  0  0  0  0
  -19.0180  -16.4070   38.3320 O   0  0  0  0  0  0  0  0  0  0  0  0
  -19.7790  -15.1720   37.9480 C   0  0  0  0  0  0  0  0  0  0  0  0
  -19.2530  -14.3010   37.6170 H   0  0  0  0  0  0  0  0  0  0  0  0
  -20.8470  -15.1630   38.0050 H   0  0  0  0  0  0  0  0  0  0  0  0
  -20.3210  -14.2910   37.6740 H   0  0  0  0  0  0  0  0  0  0  0  0
  -12.7310  -15.4430   35.5570 C   0  0  0  0  0  0  0  0  0  0  0  0
  -11.9270  -15.5750   34.2970 C   0  0  0  0  0  0  0  0  0  0  0  0
  -12.4550  -15.0200   33.0090 C   0  0  0  0  0  0  0  0  0  0  0  0
  -13.7870  -14.3320   32.9780 N   0  0  0  0  0  0  0  0  0  0  0  0
  -14.5920  -14.2000   34.2370 C   0  0  0  0  0  0  0  0  0  0  0  0
  -15.9240  -13.5120   34.2080 N   0  0  0  0  0  0  0  0  0  0  0  0
  -14.0630  -14.7560   35.5270 N   0  0  0  0  0  0  0  0  0  0  0  0
  -11.0100  -16.0490   34.3180 H   0  0  0  0  0  0  0  0  0  0  0  0
  -11.9010  -15.1110   32.1420 H   0  0  0  0  0  0  0  0  0  0  0  0
  -16.4520  -13.4250   35.0340 H   0  0  0  0  0  0  0  0  0  0  0  0
  -16.4530  -12.9560   32.9180 C   0  0  0  0  0  0  0  0  0  0  0  0
  -15.8310  -11.7300   32.3190 C   0  0  0  0  0  0  0  0  0  0  0  0
  -16.3590  -11.1740   31.0300 C   0  0  0  0  0  0  0  0  0  0  0  0
  -17.5100  -11.8450   30.3400 C   0  0  0  0  0  0  0  0  0  0  0  0
  -18.0380  -11.2880   29.0510 F   0  0  0  0  0  0  0  0  0  0  0  0
  -18.1320  -13.0700   30.9390 C   0  0  0  0  0  0  0  0  0  0  0  0
  -19.2830  -13.7420   30.2490 F   0  0  0  0  0  0  0  0  0  0  0  0
  -17.6040  -13.6270   32.2280 C   0  0  0  0  0  0  0  0  0  0  0  0
  -15.0380  -11.2680   32.7950 H   0  0  0  0  0  0  0  0  0  0  0  0
  -15.9310  -10.3300   30.6180 H   0  0  0  0  0  0  0  0  0  0  0  0
  -18.0310  -14.4700   32.6400 H   0  0  0  0  0  0  0  0  0  0  0  0
  1 16  1  0
  1  2  2  0
  3  2  1  0
  3  4  1  0
  5 10  1  0
  5  4  2  0
  6  5  1  0
  7  6  2  0
  7  8  1  0
  8  3  1  0
  9  8  2  0
  9  1  1  0
 11  6  1  0
 12  7  1  0
 13 23  1  0
 13 14  1  0
 14 19  1  0
 15 14  2  0
 15 20  1  0
 16 15  1  0
 17 18  1  0
 17 16  2  0
 18 13  2  0
 21 17  1  0
 22 18  1  0
 24 26  1  0
 24 23  1  0
 25 24  1  0
 27 24  1  0
 28  9  1  0
 29 35  1  0
 29 28  1  0
 30 29  2  0
 31 30  1  0
 31 32  2  0
 32 34  1  0
 33 32  1  0
 33 37  1  0
 34 28  2  0
 36 30  1  0
 38 33  1  0
 39 46  1  0
 39 38  1  0
 40 39  2  0
 41 43  2  0
 41 40  1  0
 42 41  1  0
 43 45  1  0
 44 43  1  0
 45 48  1  0
 45 38  2  0
 47 40  1  0
M  END
>  <minimizedAffinity>  (56) 
-8.96837044

$$$$

     RDKit          3D

 54 52  0  0  0  0  0  0  0  0999 V2000
  -10.8760  -16.1870   36.2780 C   0  0  0  0  0  0  0  0  0  0  0  0
  -10.6200  -15.4580   34.9930 C   0  0  0  0  0  0  0  0  0  0  0  0
  -11.7650  -14.8720   34.2220 C   0  0  0  0  0  0  0  0  0  0  0  0
  -13.1670  -15.0150   34.7360 C   0  0  0  0  0  0  0  0  0  0  0  0
  -13.4240  -15.7440   36.0210 C   0  0  0  0  0  0  0  0  0  0  0  0
  -12.2780  -16.3310   36.7920 C   0  0  0  0  0  0  0  0  0  0  0  0
   -9.6560  -15.3600   34.6390 H   0  0  0  0  0  0  0  0  0  0  0  0
  -11.5880  -14.3700   33.3380 H   0  0  0  0  0  0  0  0  0  0  0  0
  -14.3880  -15.8420   36.3750 H   0  0  0  0  0  0  0  0  0  0  0  0
   -7.4400  -17.9470   38.5910 N   0  0  0  0  0 15  0  0  0  0  0  0
   -8.3500  -18.8420   37.8010 C   0  0  0  0  0  2  0  0  0  0  0  0
   -9.4950  -18.2560   37.0300 C   0  0  0  0  0  2  0  0  0  0  0  0
   -9.7310  -16.7740   37.0490 N   0  0  0  0  0  2  0  0  0  0  0  0
   -8.8220  -15.8800   37.8380 C   0  0  0  0  0  3  0  0  0  0  0  0
   -7.6770  -16.4670   38.6090 C   0  0  0  0  0  2  0  0  0  0  0  0
   -8.1810  -19.8980   37.7870 H   0  0  0  0  0  0  0  0  0  0  0  0
   -8.9980  -19.4800   37.2370 H   0  0  0  0  0  0  0  0  0  0  0  0
  -10.1430  -18.8940   36.4660 H   0  0  0  0  0  0  0  0  0  0  0  0
  -10.3120  -17.8370   36.4800 H   0  0  0  0  0  0  0  0  0  0  0  0
   -8.9900  -14.8230   37.8520 H   0  0  0  0  0  0  0  0  0  0  0  0
   -8.1740  -15.2410   38.4020 H   0  0  0  0  0  0  0  0  0  0  0  0
   -7.0290  -15.8280   39.1730 H   0  0  0  0  0  0  0  0  0  0  0  0
   -6.8600  -16.8850   39.1590 H   0  0  0  0  0  0  0  0  0  0  0  0
   -6.2950  -18.5340   39.3610 C   0  0  0  0  0  3  0  0  0  0  0  0
   -6.1260  -19.5910   39.3480 H   0  0  0  0  0  0  0  0  0  0  0  0
   -5.6470  -17.8960   39.9250 H   0  0  0  0  0  0  0  0  0  0  0  0
   -5.4780  -18.9520   39.9120 H   0  0  0  0  0  0  0  0  0  0  0  0
  -14.3120  -14.4280   33.9650 N   0  0  0  0  0  0  0  0  0  0  0  0
  -15.6970  -14.4550   34.5420 C   0  0  0  0  0  0  0  0  0  0  0  0
  -16.8420  -13.8680   33.7710 N   0  0  0  0  0  0  0  0  0  0  0  0
  -18.2260  -13.8950   34.3480 C   0  0  0  0  0  0  0  0  0  0  0  0
  -18.4650  -14.5090   35.6960 C   0  0  0  0  0  0  0  0  0  0  0  0
  -17.3200  -15.0950   36.4670 C   0  0  0  0  0  0  0  0  0  0  0  0
  -15.9360  -15.0680   35.8890 N   0  0  0  0  0  0  0  0  0  0  0  0
  -14.1560  -14.0250   33.0810 H   0  0  0  0  0  0  0  0  0  0  0  0
  -19.0140  -13.4920   33.8180 H   0  0  0  0  0  0  0  0  0  0  0  0
  -19.4180  -14.5270   36.0930 H   0  0  0  0  0  0  0  0  0  0  0  0
  -17.5590  -15.7080   37.8140 C   0  0  0  0  0  0  0  0  0  0  0  0
  -18.7870  -16.4600   38.2360 C   0  0  0  0  0  0  0  0  0  0  0  0
  -18.6000  -16.8940   39.6600 N   0  0  0  0  0  0  0  0  0  0  0  0
  -17.2550  -16.4110   40.1180 N   0  0  0  0  0  0  0  0  0  0  0  0
  -16.5340  -16.5430   41.4260 N   0  0  0  0  0  0  0  0  0  0  0  0
  -15.1690  -15.9430   41.5940 C   0  0  0  0  0  0  0  0  0  0  0  0
  -14.5270  -15.2100   40.4540 C   0  0  0  0  0  0  0  0  0  0  0  0
  -15.2480  -15.0780   39.1460 C   0  0  0  0  0  0  0  0  0  0  0  0
  -16.6120  -15.6780   38.9780 C   0  0  0  0  0  0  0  0  0  0  0  0
  -19.6150  -16.6460   37.6500 H   0  0  0  0  0  0  0  0  0  0  0  0
  -14.6730  -16.0340   42.4950 H   0  0  0  0  0  0  0  0  0  0  0  0
  -13.5880  -14.7970   40.5700 H   0  0  0  0  0  0  0  0  0  0  0  0
  -14.8060  -14.5740   38.3610 H   0  0  0  0  0  0  0  0  0  0  0  0
  -12.5350  -17.0600   38.0780 C   0  0  0  0  0  0  0  0  0  0  0  0
  -12.7930  -17.7900   39.3620 F   0  0  0  0  0  0  0  0  0  0  0  0
  -11.7510  -16.0230   38.8240 F   0  0  0  0  0  0  0  0  0  0  0  0
  -13.3200  -18.0980   37.3310 F   0  0  0  0  0  0  0  0  0  0  0  0
  1  6  1  0
  1 13  1  0
  2  1  2  0
  3  4  2  0
  3  2  1  0
  4  5  1  0
  5  9  1  0
  5  6  2  0
  6 51  1  0
  7  2  1  0
  8  3  1  0
 13 14  1  0
 14 20  1  0
 14 21  1  0
 15 23  1  0
 15 22  1  0
 16 11  1  0
 17 11  1  0
 18 12  1  0
 19 12  1  0
 24 27  1  0
 24 26  1  0
 25 24  1  0
 28 29  1  0
 28  4  1  0
 29 34  1  0
 30 31  1  0
 30 29  2  0
 31 32  2  0
 32 37  1  0
 32 33  1  0
 33 38  1  0
 34 33  2  0
 35 28  1  0
 36 31  1  0
 38 39  1  0
 38 46  2  0
 39 40  2  0
 40 41  1  0
 41 42  1  0
 42 43  2  0
 43 48  1  0
 44 49  1  0
 44 43  1  0
 45 44  2  0
 46 45  1  0
 46 41  1  0
 47 39  1  0
 50 45  1  0
 51 53  1  0
 51 52  1  0
 54 51  1  0
M  END
>  <minimizedAffinity>  (57) 
-9.33875942

$$$$

     RDKit          3D

 50 50  0  0  0  0  0  0  0  0999 V2000
  -16.7090  -13.5190   33.7760 C   0  0  0  0  0  0  0  0  0  0  0  0
  -15.4670  -14.2310   34.2230 C   0  0  0  0  0  3  0  0  0  0  0  0
  -14.1510  -13.9240   33.5720 C   0  0  0  0  0  3  0  0  0  0  0  0
  -14.0770  -12.9040   32.4740 C   0  0  0  0  0  3  0  0  0  0  0  0
  -15.3190  -12.1920   32.0280 C   0  0  0  0  0 15  0  0  0  0  0  0
  -15.2440  -11.1720   30.9300 O   0  0  0  0  0 15  0  0  0  0  0  0
  -16.6350  -12.4990   32.6780 N   0  0  0  0  0  2  0  0  0  0  0  0
  -14.2040  -14.6510   34.3540 H   0  0  0  0  0  0  0  0  0  0  0  0
  -13.1380  -12.6850   32.0100 H   0  0  0  0  0  0  0  0  0  0  0  0
  -14.0240  -12.1770   31.6910 H   0  0  0  0  0  0  0  0  0  0  0  0
  -17.4500  -12.0310   32.3850 H   0  0  0  0  0  0  0  0  0  0  0  0
  -12.9090  -14.6370   34.0190 C   0  0  0  0  0  0  0  0  0  0  0  0
  -11.8880  -15.0700   33.0080 C   0  0  0  0  0  0  0  0  0  0  0  0
  -10.6460  -15.7820   33.4550 C   0  0  0  0  0  0  0  0  0  0  0  0
  -10.4250  -16.0620   34.9120 C   0  0  0  0  0  0  0  0  0  0  0  0
   -9.1830  -16.7740   35.3590 C   0  0  0  0  0  0  0  0  0  0  0  0
   -8.9610  -17.0540   36.8160 C   0  0  0  0  0  0  0  0  0  0  0  0
   -9.9820  -16.6200   37.8260 C   0  0  0  0  0  0  0  0  0  0  0  0
  -11.2240  -15.9080   37.3790 C   0  0  0  0  0  0  0  0  0  0  0  0
  -11.4450  -15.6280   35.9220 C   0  0  0  0  0  0  0  0  0  0  0  0
  -12.6870  -14.9160   35.4760 C   0  0  0  0  0  0  0  0  0  0  0  0
  -12.0410  -14.8780   32.0060 H   0  0  0  0  0  0  0  0  0  0  0  0
   -9.9440  -16.0810   32.7600 H   0  0  0  0  0  0  0  0  0  0  0  0
   -8.4810  -17.0720   34.6640 H   0  0  0  0  0  0  0  0  0  0  0  0
   -8.1070  -17.5440   37.1240 H   0  0  0  0  0  0  0  0  0  0  0  0
   -9.8300  -16.8130   38.8290 H   0  0  0  0  0  0  0  0  0  0  0  0
  -11.9260  -15.6100   38.0750 H   0  0  0  0  0  0  0  0  0  0  0  0
  -13.3900  -14.6180   36.1710 H   0  0  0  0  0  0  0  0  0  0  0  0
  -18.0250  -13.8260   34.4270 C   0  0  0  0  0  0  0  0  0  0  0  0
  -18.0780  -14.5530   35.2090 H   0  0  0  0  0  0  0  0  0  0  0  0
  -18.9110  -13.3170   34.1080 H   0  0  0  0  0  0  0  0  0  0  0  0
  -18.9640  -14.0450   34.8910 H   0  0  0  0  0  0  0  0  0  0  0  0
  -15.5410  -15.2510   35.3200 C   0  0  0  0  0  0  0  0  0  0  0  0
  -15.5480  -16.7130   34.9860 O   0  0  0  0  0  0  0  0  0  0  0  0
  -15.6080  -14.8080   36.7520 N   0  0  0  0  0  0  0  0  0  0  0  0
  -15.6030  -13.8480   36.9710 H   0  0  0  0  0  0  0  0  0  0  0  0
  -15.6820  -15.8280   37.8500 C   0  0  0  0  0  0  0  0  0  0  0  0
  -14.4280  -16.4730   38.3600 C   0  0  0  0  0  0  0  0  0  0  0  0
  -14.5020  -17.4920   39.4580 C   0  0  0  0  0  0  0  0  0  0  0  0
  -15.8300  -17.8670   40.0450 C   0  0  0  0  0  0  0  0  0  0  0  0
  -16.2130  -18.8320   41.1280 N   0  0  0  0  0  0  0  0  0  0  0  0
  -17.7030  -18.7840   41.2860 N   0  0  0  0  0  0  0  0  0  0  0  0
  -18.2420  -17.7890   40.3010 C   0  0  0  0  0  0  0  0  0  0  0  0
  -17.0850  -17.2220   39.5340 C   0  0  0  0  0  0  0  0  0  0  0  0
  -17.0100  -16.2030   38.4370 C   0  0  0  0  0  0  0  0  0  0  0  0
  -13.5140  -16.2150   37.9560 H   0  0  0  0  0  0  0  0  0  0  0  0
  -13.6390  -17.9360   39.8090 H   0  0  0  0  0  0  0  0  0  0  0  0
  -15.5940  -19.3980   41.6440 H   0  0  0  0  0  0  0  0  0  0  0  0
  -19.2350  -17.5380   40.1740 H   0  0  0  0  0  0  0  0  0  0  0  0
  -17.8740  -15.7590   38.0850 H   0  0  0  0  0  0  0  0  0  0  0  0
  1  2  2  0
  1 29  1  0
  2 33  1  0
  3 12  1  0
  3  8  1  0
  4  3  1  0
  7  1  1  0
  9  4  1  0
 10  4  1  0
 11  7  1  0
 12 21  1  0
 13 14  1  0
 13 12  2  0
 14 15  2  0
 15 16  1  0
 15 20  1  0
 16 17  2  0
 17 25  1  0
 17 18  1  0
 18 26  1  0
 19 18  2  0
 19 27  1  0
 20 19  1  0
 21 20  2  0
 21 28  1  0
 22 13  1  0
 23 14  1  0
 24 16  1  0
 29 32  1  0
 29 30  1  0
 31 29  1  0
 33 35  1  0
 34 33  2  0
 35 36  1  0
 35 37  1  0
 37 38  2  0
 37 45  1  0
 38 39  1  0
 39 47  1  0
 39 40  2  0
 40 41  1  0
 41 42  1  0
 41 48  1  0
 43 42  2  0
 44 40  1  0
 44 43  1  0
 45 44  2  0
 46 38  1  0
 49 43  1  0
 50 45  1  0
M  END
>  <minimizedAffinity>  (58) 
-11.2144632

$$$$

     RDKit          3D

 68 64  0  0  0  0  0  0  0  0999 V2000
  -16.4480  -14.4570   35.2740 N   0  0  0  0  0  0  0  0  0  0  0  0
  -17.4180  -14.0270   34.2140 C   0  0  0  0  0  0  0  0  0  0  0  0
  -16.6340  -13.6410   32.9950 N   0  0  0  0  0  0  0  0  0  0  0  0
  -15.1780  -13.8320   33.3020 C   0  0  0  0  0  0  0  0  0  0  0  0
  -13.9420  -13.6130   32.4800 C   0  0  0  0  0  0  0  0  0  0  0  0
  -12.5910  -13.8970   33.0670 C   0  0  0  0  0  0  0  0  0  0  0  0
  -12.4760  -14.4010   34.4750 C   0  0  0  0  0  0  0  0  0  0  0  0
  -13.7120  -14.6210   35.2960 C   0  0  0  0  0  0  0  0  0  0  0  0
  -15.0630  -14.3360   34.7100 C   0  0  0  0  0  0  0  0  0  0  0  0
  -18.4460  -14.0010   34.3070 H   0  0  0  0  0  0  0  0  0  0  0  0
  -14.0210  -13.2660   31.5110 H   0  0  0  0  0  0  0  0  0  0  0  0
  -11.7410  -13.7460   32.5020 H   0  0  0  0  0  0  0  0  0  0  0  0
  -13.6330  -14.9670   36.2650 H   0  0  0  0  0  0  0  0  0  0  0  0
  -16.7570  -15.2650   39.0570 C   0  0  0  0  0  0  0  0  0  0  0  0
  -16.0620  -14.5850   37.9160 C   0  0  0  0  0  0  0  0  0  0  0  0
  -16.7990  -14.9240   36.6550 C   0  0  0  0  0  0  0  0  0  0  0  0
  -17.9510  -15.8150   37.0180 S   0  0  0  0  0  0  0  0  0  0  0  0
  -17.9250  -16.0250   38.5020 C   0  0  0  0  0  0  0  0  0  0  0  0
  -15.2220  -13.9890   37.9860 H   0  0  0  0  0  0  0  0  0  0  0  0
  -18.8960  -16.8500   39.2930 C   0  0  0  0  0  0  0  0  0  0  0  0
  -18.9710  -18.3330   39.0770 N   0  0  0  0  0  0  0  0  0  0  0  0
  -19.7930  -16.1930   40.3000 O   0  0  0  0  0  0  0  0  0  0  0  0
  -19.6090  -18.8740   39.5960 H   0  0  0  0  0  0  0  0  0  0  0  0
  -18.3830  -18.7640   38.4160 H   0  0  0  0  0  0  0  0  0  0  0  0
  -16.3550  -15.1970   40.5010 O   0  0  0  0  0  1  0  0  0  0  0  0
  -15.3910  -16.2030   41.0590 C   0  0  0  0  0  3  0  0  0  0  0  0
  -16.4280  -16.2550   41.3170 H   0  0  0  0  0  0  0  0  0  0  0  0
  -13.9380  -16.1290   40.6970 C   0  0  0  0  0  0  0  0  0  0  0  0
  -12.9940  -15.3210   41.5380 C   0  0  0  0  0  0  0  0  0  0  0  0
  -11.5420  -15.2470   41.1750 C   0  0  0  0  0  0  0  0  0  0  0  0
  -11.0310  -15.9830   39.9710 C   0  0  0  0  0  0  0  0  0  0  0  0
  -11.9730  -16.7910   39.1310 C   0  0  0  0  0  0  0  0  0  0  0  0
  -13.4270  -16.8640   39.4940 C   0  0  0  0  0  0  0  0  0  0  0  0
  -13.3470  -14.8150   42.3660 H   0  0  0  0  0  0  0  0  0  0  0  0
  -10.8920  -14.6910   41.7530 H   0  0  0  0  0  0  0  0  0  0  0  0
  -10.0310  -15.9320   39.7220 H   0  0  0  0  0  0  0  0  0  0  0  0
  -11.6220  -17.2970   38.3020 H   0  0  0  0  0  0  0  0  0  0  0  0
  -14.3700  -17.6730   38.6530 C   0  0  0  0  0  0  0  0  0  0  0  0
  -15.3120  -18.4820   37.8110 F   0  0  0  0  0  0  0  0  0  0  0  0
  -14.1980  -16.7010   37.5230 F   0  0  0  0  0  0  0  0  0  0  0  0
  -14.5420  -18.6460   39.7820 F   0  0  0  0  0  0  0  0  0  0  0  0
  -15.8820  -17.2810   41.9780 C   0  0  0  0  0  0  0  0  0  0  0  0
  -15.1950  -17.9990   42.3770 H   0  0  0  0  0  0  0  0  0  0  0  0
  -16.9190  -17.3330   42.2360 H   0  0  0  0  0  0  0  0  0  0  0  0
  -16.2320  -18.0510   42.6350 H   0  0  0  0  0  0  0  0  0  0  0  0
  -11.1250  -14.6850   35.0620 O   0  0  0  0  0  0  0  0  0  0  0  0
  -10.5880  -16.0860   35.0640 C   0  0  0  0  0  3  0  0  0  0  0  0
  -10.8760  -16.7700   34.2940 H   0  0  0  0  0  0  0  0  0  0  0  0
  -10.2050  -17.0850   35.0660 H   0  0  0  0  0  0  0  0  0  0  0  0
   -9.6480  -16.5270   36.1470 C   0  0  0  0  0  1  0  0  0  0  0  0
   -8.8610  -15.5080   36.9170 C   0  0  0  0  0  2  0  0  0  0  0  0
   -7.9200  -15.9490   37.9990 C   0  0  0  0  0  2  0  0  0  0  0  0
   -7.7680  -17.4080   38.3120 N   0  0  0  0  0  1  0  0  0  0  0  0
   -8.5550  -18.4270   37.5420 C   0  0  0  0  0  2  0  0  0  0  0  0
   -9.4960  -17.9860   36.4590 C   0  0  0  0  0  2  0  0  0  0  0  0
   -8.9770  -16.8410   36.9190 H   0  0  0  0  0  0  0  0  0  0  0  0
   -8.9690  -14.4670   36.6940 H   0  0  0  0  0  0  0  0  0  0  0  0
   -8.2990  -14.7820   37.4660 H   0  0  0  0  0  0  0  0  0  0  0  0
   -7.3580  -15.2230   38.5490 H   0  0  0  0  0  0  0  0  0  0  0  0
   -7.2500  -16.2640   38.7710 H   0  0  0  0  0  0  0  0  0  0  0  0
   -8.4460  -19.4670   37.7640 H   0  0  0  0  0  0  0  0  0  0  0  0
   -9.1170  -19.1530   36.9930 H   0  0  0  0  0  0  0  0  0  0  0  0
  -10.0570  -18.7120   35.9100 H   0  0  0  0  0  0  0  0  0  0  0  0
  -10.1660  -17.6710   35.6870 H   0  0  0  0  0  0  0  0  0  0  0  0
   -6.8280  -17.8490   39.3940 C   0  0  0  0  0  0  0  0  0  0  0  0
   -6.2660  -17.1230   39.9430 H   0  0  0  0  0  0  0  0  0  0  0  0
   -6.7190  -18.8900   39.6170 H   0  0  0  0  0  0  0  0  0  0  0  0
   -6.1570  -18.1640   40.1660 H   0  0  0  0  0  0  0  0  0  0  0  0
  1 16  1  0
  2 10  1  0
  2  1  1  0
  3  4  1  0
  3  2  2  0
  4  9  1  0
  5  6  1  0
  5  4  2  0
  6  7  2  0
  7 46  1  0
  7  8  1  0
  8 13  1  0
  9  1  1  0
  9  8  2  0
 11  5  1  0
 12  6  1  0
 14 25  1  0
 15 19  1  0
 15 14  1  0
 16 17  1  0
 16 15  2  0
 17 18  1  0
 18 14  2  0
 18 20  1  0
 20 22  2  0
 21 20  1  0
 21 23  1  0
 24 21  1  0
 26 27  1  0
 26 42  1  0
 28 26  1  0
 28 29  1  0
 29 34  1  0
 30 29  2  0
 30 35  1  0
 31 30  1  0
 32 33  1  0
 32 31  2  0
 33 28  2  0
 36 31  1  0
 37 32  1  0
 38 33  1  0
 38 41  1  0
 39 38  1  0
 40 38  1  0
 42 44  1  0
 42 43  1  0
 42 45  1  0
 46 47  1  0
 47 49  1  0
 48 47  1  0
 50 56  1  0
 51 58  1  0
 52 59  1  0
 52 60  1  0
 53 65  1  0
 54 61  1  0
 57 51  1  0
 62 54  1  0
 63 55  1  0
 64 55  1  0
 65 67  1  0
 65 66  1  0
 65 68  1  0
M  END
>  <minimizedAffinity>  (59) 
-11.0860338

$$$$

     RDKit          3D

 36 38  0  0  0  0  0  0  0  0999 V2000
  -13.5970  -14.6160   34.4540 N   0  0  0  0  0  0  0  0  0  0  0  0
  -13.7180  -13.8710   33.8220 H   0  0  0  0  0  0  0  0  0  0  0  0
  -15.7200  -16.5740   37.1760 C   0  0  0  0  0  0  0  0  0  0  0  0
  -17.1130  -16.1760   36.7890 C   0  0  0  0  0  0  0  0  0  0  0  0
  -17.3350  -15.2580   35.6240 C   0  0  0  0  0  0  0  0  0  0  0  0
  -16.1630  -14.7380   34.8460 C   0  0  0  0  0  0  0  0  0  0  0  0
  -14.7690  -15.1360   35.2330 C   0  0  0  0  0  0  0  0  0  0  0  0
  -14.5480  -16.0540   36.3980 C   0  0  0  0  0  0  0  0  0  0  0  0
  -17.9200  -16.5340   37.3250 H   0  0  0  0  0  0  0  0  0  0  0  0
  -18.2940  -14.9840   35.3580 H   0  0  0  0  0  0  0  0  0  0  0  0
  -16.3150  -14.1060   34.0440 H   0  0  0  0  0  0  0  0  0  0  0  0
  -13.5890  -16.3280   36.6640 H   0  0  0  0  0  0  0  0  0  0  0  0
  -15.4980  -17.4920   38.3420 S   0  0  2  0  0  0  0  0  0  0  0  0
  -16.9700  -17.4800   38.6310 O   0  0  0  0  0  0  0  0  0  0  0  0
  -14.0270  -17.5040   38.0520 O   0  0  0  0  0  0  0  0  0  0  0  0
  -15.2770  -18.4100   39.5070 N   0  0  0  0  0  0  0  0  0  0  0  0
  -16.0680  -18.7150   40.0740 H   0  0  0  0  0  0  0  0  0  0  0  0
  -14.3350  -18.7300   39.7330 H   0  0  0  0  0  0  0  0  0  0  0  0
  -12.2420  -15.2310   34.6390 C   0  0  0  0  0  0  0  0  0  0  0  0
  -11.6090  -15.5930   35.9500 C   0  0  0  0  0  0  0  0  0  0  0  0
  -10.2570  -16.1780   35.6670 C   0  0  0  0  0  0  0  0  0  0  0  0
  -10.0540  -16.1770   34.1800 N   0  0  0  0  0  0  0  0  0  0  0  0
  -11.2800  -15.5920   33.5450 N   0  0  0  0  0  0  0  0  0  0  0  0
  -12.0300  -15.4620   36.8840 H   0  0  0  0  0  0  0  0  0  0  0  0
  -11.4290  -15.4670   32.5800 H   0  0  0  0  0  0  0  0  0  0  0  0
   -9.2790  -16.6760   36.6900 C   0  0  0  0  0  0  0  0  0  0  0  0
   -9.1170  -18.1490   36.9180 C   0  0  0  0  0  0  0  0  0  0  0  0
   -8.1400  -18.6470   37.9400 C   0  0  0  0  0  0  0  0  0  0  0  0
   -7.3250  -17.6710   38.7360 C   0  0  0  0  0  0  0  0  0  0  0  0
   -6.3480  -18.1680   39.7600 F   0  0  0  0  0  0  0  0  0  0  0  0
   -7.4880  -16.1980   38.5100 C   0  0  0  0  0  0  0  0  0  0  0  0
   -8.4650  -15.7000   37.4860 C   0  0  0  0  0  0  0  0  0  0  0  0
   -9.6770  -18.8200   36.3700 H   0  0  0  0  0  0  0  0  0  0  0  0
   -8.0280  -19.6610   38.0970 H   0  0  0  0  0  0  0  0  0  0  0  0
   -6.9270  -15.5260   39.0580 H   0  0  0  0  0  0  0  0  0  0  0  0
   -8.5770  -14.6860   37.3300 H   0  0  0  0  0  0  0  0  0  0  0  0
  1 19  1  0
  1  7  1  0
  2  1  1  0
  3 13  1  0
  4  3  1  0
  4  9  1  0
  5  4  2  0
  6  7  2  0
  6  5  1  0
  7  8  1  0
  8 12  1  0
  8  3  2  0
 10  5  1  0
 11  6  1  0
 13 14  2  0
 13 16  1  0
 15 13  2  0
 16 18  1  0
 16 17  1  0
 19 20  2  0
 20 24  1  0
 21 20  1  0
 21 26  1  0
 22 21  2  0
 23 22  1  0
 23 19  1  0
 25 23  1  0
 26 27  2  0
 26 32  1  0
 27 28  1  0
 28 34  1  0
 28 29  2  0
 29 30  1  0
 31 29  1  0
 31 35  1  0
 32 31  2  0
 33 27  1  0
 36 32  1  0
M  END
>  <minimizedAffinity>  (60) 
-8.86379051

$$$$

     RDKit          3D

 66 62  0  0  0  0  0  0  0  0999 V2000
  -14.6590  -15.7190   40.1120 C   0  0  0  0  0  0  0  0  0  0  0  0
  -15.5040  -16.0160   41.3150 C   0  0  0  0  0  0  0  0  0  0  0  0
  -16.9990  -16.0370   41.1950 C   0  0  0  0  0  0  0  0  0  0  0  0
  -17.6490  -15.7610   39.8720 C   0  0  0  0  0  0  0  0  0  0  0  0
  -19.1440  -15.7820   39.7530 N   0  0  0  0  0  0  0  0  0  0  0  0
  -19.7950  -15.5050   38.4300 C   0  0  0  0  0  0  0  0  0  0  0  0
  -18.9500  -15.2080   37.2260 N   0  0  0  0  0  0  0  0  0  0  0  0
  -17.4550  -15.1870   37.3460 C   0  0  0  0  0  0  0  0  0  0  0  0
  -16.6110  -14.8890   36.1430 N   0  0  0  0  0  0  0  0  0  0  0  0
  -16.8050  -15.4630   38.6690 C   0  0  0  0  0  0  0  0  0  0  0  0
  -15.3100  -15.4420   38.7890 C   0  0  0  0  0  0  0  0  0  0  0  0
  -15.0560  -16.2070   42.2250 H   0  0  0  0  0  0  0  0  0  0  0  0
  -17.5800  -16.2420   42.0240 H   0  0  0  0  0  0  0  0  0  0  0  0
  -20.8240  -15.5200   38.3480 H   0  0  0  0  0  0  0  0  0  0  0  0
  -15.6290  -14.8750   36.2210 H   0  0  0  0  0  0  0  0  0  0  0  0
  -14.7290  -15.2380   37.9610 H   0  0  0  0  0  0  0  0  0  0  0  0
  -17.2610  -14.6130   34.8200 C   0  0  0  0  0  0  0  0  0  0  0  0
  -18.6660  -15.0730   34.5640 C   0  0  0  0  0  0  0  0  0  0  0  0
  -19.3160  -14.7960   33.2410 C   0  0  0  0  0  0  0  0  0  0  0  0
  -18.5620  -14.0600   32.1740 C   0  0  0  0  0  0  0  0  0  0  0  0
  -17.1580  -13.5990   32.4300 C   0  0  0  0  0  0  0  0  0  0  0  0
  -16.4040  -12.8630   31.3630 Cl  0  0  0  0  0  0  0  0  0  0  0  0
  -16.5070  -13.8760   33.7530 C   0  0  0  0  0  0  0  0  0  0  0  0
  -19.1850  -15.5800   35.2980 H   0  0  0  0  0  0  0  0  0  0  0  0
  -20.2830  -15.1130   33.0650 H   0  0  0  0  0  0  0  0  0  0  0  0
  -15.5410  -13.5590   33.9290 H   0  0  0  0  0  0  0  0  0  0  0  0
  -19.2130  -13.7830   30.8510 O   0  0  0  0  0  0  0  0  0  0  0  0
  -19.7950  -12.4290   30.5690 C   0  0  0  0  0  0  0  0  0  0  0  0
  -20.6450  -12.0870   31.1220 H   0  0  0  0  0  0  0  0  0  0  0  0
  -20.2100  -11.4640   30.3690 H   0  0  0  0  0  0  0  0  0  0  0  0
  -19.1850  -11.5560   29.5130 C   0  0  0  0  0  0  0  0  0  0  0  0
  -19.5170  -11.7840   28.0680 C   0  0  0  0  0  0  0  0  0  0  0  0
  -18.9070  -10.9100   27.0120 C   0  0  0  0  0  0  0  0  0  0  0  0
  -17.9660   -9.8090   27.4010 C   0  0  0  0  0  0  0  0  0  0  0  0
  -17.6340   -9.5810   28.8460 C   0  0  0  0  0  0  0  0  0  0  0  0
  -18.2440  -10.4550   29.9020 C   0  0  0  0  0  0  0  0  0  0  0  0
  -20.1640  -12.5410   27.8000 H   0  0  0  0  0  0  0  0  0  0  0  0
  -19.1350  -11.0670   26.0180 H   0  0  0  0  0  0  0  0  0  0  0  0
  -17.5460   -9.2080   26.6740 H   0  0  0  0  0  0  0  0  0  0  0  0
  -16.9860   -8.8230   29.1140 H   0  0  0  0  0  0  0  0  0  0  0  0
  -18.0150  -10.2980   30.8960 H   0  0  0  0  0  0  0  0  0  0  0  0
  -10.8040  -15.9620   39.7290 C   0  0  0  0  0 15  0  0  0  0  0  0
  -10.9220  -15.3690   41.1010 C   0  0  0  0  0  2  0  0  0  0  0  0
  -12.3810  -15.2060   41.4120 C   0  0  0  0  0  0  0  0  0  0  0  0
  -13.1640  -15.6980   40.2310 C   0  0  0  0  0  0  0  0  0  0  0  0
  -12.1900  -16.1660   39.1910 O   0  0  0  0  0  1  0  0  0  0  0  0
  -10.1380  -15.1170   41.7230 H   0  0  0  0  0  0  0  0  0  0  0  0
  -12.7760  -14.8210   42.2850 H   0  0  0  0  0  0  0  0  0  0  0  0
   -9.5260  -16.2940   39.0190 C   0  0  0  0  0  3  0  0  0  0  0  0
   -8.6080  -16.3480   39.5670 H   0  0  0  0  0  0  0  0  0  0  0  0
   -9.5210  -16.1120   40.0730 H   0  0  0  0  0  0  0  0  0  0  0  0
   -9.5530  -17.3180   33.1070 O   0  0  0  0  0 15  0  0  0  0  0  0
   -9.5460  -17.0620   34.5860 S   0  0  0  0  0 15  0  0  0  0  0  0
   -8.9510  -18.0740   35.5190 C   0  0  0  0  0  2  0  0  0  0  0  0
   -8.9440  -17.8180   36.9960 C   0  0  0  0  0  2  0  0  0  0  0  0
   -9.5330  -16.5500   37.5410 N   0  0  0  0  0  2  0  0  0  0  0  0
  -10.1280  -15.5380   36.6070 C   0  0  0  0  0  3  0  0  0  0  0  0
  -10.1340  -15.7940   35.1290 C   0  0  0  0  0  2  0  0  0  0  0  0
   -8.5310  -18.9790   35.1310 H   0  0  0  0  0  0  0  0  0  0  0  0
   -8.5270  -18.7950   36.1850 H   0  0  0  0  0  0  0  0  0  0  0  0
   -8.5200  -18.5400   37.6630 H   0  0  0  0  0  0  0  0  0  0  0  0
   -8.9390  -17.6360   38.0510 H   0  0  0  0  0  0  0  0  0  0  0  0
  -10.5470  -14.6330   36.9960 H   0  0  0  0  0  0  0  0  0  0  0  0
  -10.5520  -14.8160   35.9410 H   0  0  0  0  0  0  0  0  0  0  0  0
  -10.5590  -15.0720   34.4630 H   0  0  0  0  0  0  0  0  0  0  0  0
  -10.1390  -15.9760   34.0750 H   0  0  0  0  0  0  0  0  0  0  0  0
  1 45  1  0
  1  2  1  0
  2 12  1  0
  3  2  2  0
  3 13  1  0
  4  3  1  0
  5  4  1  0
  6  5  2  0
  7  8  2  0
  7  6  1  0
  8 10  1  0
  9 15  1  0
  9  8  1  0
 10 11  1  0
 10  4  2  0
 11  1  2  0
 14  6  1  0
 16 11  1  0
 17  9  1  0
 18 17  1  0
 18 24  1  0
 19 18  2  0
 20 21  2  0
 20 19  1  0
 21 23  1  0
 22 21  1  0
 23 26  1  0
 23 17  2  0
 25 19  1  0
 27 20  1  0
 28 27  1  0
 28 29  1  0
 30 28  1  0
 31 36  1  0
 31 28  1  0
 32 31  2  0
 33 34  2  0
 33 32  1  0
 34 35  1  0
 35 40  1  0
 35 36  2  0
 36 41  1  0
 37 32  1  0
 38 33  1  0
 39 34  1  0
 43 44  1  0
 43 47  1  0
 44 48  1  0
 45 44  2  0
 46 45  1  0
 49 50  1  0
 49 51  1  0
 54 60  1  0
 55 61  1  0
 55 62  1  0
 56 49  1  0
 57 63  1  0
 57 56  1  0
 59 54  1  0
 64 57  1  0
 65 58  1  0
 66 58  1  0
M  END
>  <minimizedAffinity>  (61) 
-6.59056473

$$$$

     RDKit          3D

 69 68  0  0  1  0  0  0  0  0999 V2000
  -18.7030  -13.9600   33.2820 C   0  0  0  0  0  0  0  0  0  0  0  0
  -19.7950  -14.2820   34.2590 C   0  0  0  0  0  0  0  0  0  0  0  0
  -19.4650  -14.9590   35.5560 C   0  0  0  0  0  0  0  0  0  0  0  0
  -18.0430  -15.3160   35.8760 C   0  0  0  0  0  0  0  0  0  0  0  0
  -17.7130  -15.9930   37.1720 N   0  0  0  0  0  0  0  0  0  0  0  0
  -16.2910  -16.3500   37.4920 C   0  0  0  0  0  0  0  0  0  0  0  0
  -15.2000  -16.0280   36.5150 N   0  0  0  0  0  0  0  0  0  0  0  0
  -15.5300  -15.3500   35.2180 C   0  0  0  0  0  0  0  0  0  0  0  0
  -14.4380  -15.0280   34.2410 N   0  0  0  0  0  0  0  0  0  0  0  0
  -16.9520  -14.9940   34.8980 C   0  0  0  0  0  0  0  0  0  0  0  0
  -17.2820  -14.3160   33.6020 C   0  0  0  0  0  0  0  0  0  0  0  0
  -20.7730  -14.0370   34.0390 H   0  0  0  0  0  0  0  0  0  0  0  0
  -20.2160  -15.1810   36.2290 H   0  0  0  0  0  0  0  0  0  0  0  0
  -16.0640  -16.8160   38.3840 H   0  0  0  0  0  0  0  0  0  0  0  0
  -14.6550  -14.5830   33.3890 H   0  0  0  0  0  0  0  0  0  0  0  0
  -16.5310  -14.0940   32.9290 H   0  0  0  0  0  0  0  0  0  0  0  0
  -13.0170  -15.3840   34.5600 C   0  0  0  0  0  0  0  0  0  0  0  0
  -11.9710  -15.3320   33.4860 C   0  0  0  0  0  0  0  0  0  0  0  0
  -10.5490  -15.6880   33.8060 C   0  0  0  0  0  0  0  0  0  0  0  0
  -10.1730  -16.0960   35.2000 C   0  0  0  0  0  0  0  0  0  0  0  0
  -11.2190  -16.1490   36.2730 C   0  0  0  0  0  0  0  0  0  0  0  0
  -12.6410  -15.7920   35.9540 C   0  0  0  0  0  0  0  0  0  0  0  0
  -12.2290  -15.0510   32.5270 H   0  0  0  0  0  0  0  0  0  0  0  0
   -9.8300  -15.6520   33.0670 H   0  0  0  0  0  0  0  0  0  0  0  0
  -13.3610  -15.8290   36.6930 H   0  0  0  0  0  0  0  0  0  0  0  0
  -10.8430  -16.5570   37.6670 C   0  0  0  0  0  0  0  0  0  0  0  0
  -10.4680  -16.9650   39.0610 F   0  0  0  0  0  0  0  0  0  0  0  0
  -10.0070  -15.3190   37.8040 F   0  0  0  0  0  0  0  0  0  0  0  0
  -11.6800  -17.7950   37.5300 F   0  0  0  0  0  0  0  0  0  0  0  0
   -8.7520  -16.4520   35.5190 O   0  0  0  0  0  0  0  0  0  0  0  0
   -8.4220  -17.8150   36.0530 C   0  0  0  0  0  0  0  0  0  0  0  0
   -8.6920  -18.6880   35.4960 H   0  0  0  0  0  0  0  0  0  0  0  0
   -8.1860  -18.7870   36.4340 H   0  0  0  0  0  0  0  0  0  0  0  0
   -7.7130  -17.9540   37.3670 C   0  0  0  0  0  0  0  0  0  0  0  0
   -7.3950  -19.3160   37.9080 C   0  0  0  0  0  0  0  0  0  0  0  0
   -6.6860  -19.4550   39.2220 C   0  0  0  0  0  0  0  0  0  0  0  0
   -6.2950  -18.2320   39.9970 C   0  0  0  0  0  0  0  0  0  0  0  0
   -6.6130  -16.8690   39.4570 C   0  0  0  0  0  0  0  0  0  0  0  0
   -7.3220  -16.7300   38.1420 C   0  0  0  0  0  0  0  0  0  0  0  0
   -7.6640  -20.1590   37.3750 H   0  0  0  0  0  0  0  0  0  0  0  0
   -6.4670  -20.3930   39.5940 H   0  0  0  0  0  0  0  0  0  0  0  0
   -5.8070  -18.3270   40.9010 H   0  0  0  0  0  0  0  0  0  0  0  0
   -6.3440  -16.0270   39.9890 H   0  0  0  0  0  0  0  0  0  0  0  0
   -7.5410  -15.7920   37.7700 H   0  0  0  0  0  0  0  0  0  0  0  0
  -19.3890  -11.5730   30.2990 C   0  0  0  0  0  1  0  0  0  0  0  0
  -19.6930  -12.9050   29.6800 C   0  0  0  0  0  0  0  0  0  0  0  0
  -19.4740  -13.9610   30.7220 C   0  0  0  0  0  0  0  0  0  0  0  0
  -19.0330  -13.2820   31.9850 C   0  0  0  0  0  3  0  0  0  0  0  0
  -18.9810  -11.8060   31.7240 O   0  0  0  0  0  1  0  0  0  0  0  0
  -20.0000  -13.0660   28.7090 H   0  0  0  0  0  0  0  0  0  0  0  0
  -19.6020  -14.9760   30.5930 H   0  0  0  0  0  0  0  0  0  0  0  0
  -19.4780  -10.2410   29.6140 C   0  0  0  0  0  2  0  0  0  0  0  0
  -20.4260   -9.7610   29.4980 H   0  0  0  0  0  0  0  0  0  0  0  0
  -20.3630  -10.7100   29.9870 H   0  0  0  0  0  0  0  0  0  0  0  0
  -18.2350   -9.5830   29.0910 N   0  0  0  0  0  1  0  0  0  0  0  0
  -18.1610   -8.5660   29.0830 H   0  0  0  0  0  0  0  0  0  0  0  0
  -17.1020  -10.4220   28.5790 C   0  0  0  0  0  2  0  0  0  0  0  0
  -17.2210  -10.9960   27.6840 H   0  0  0  0  0  0  0  0  0  0  0  0
  -18.0300  -10.3970   28.0480 H   0  0  0  0  0  0  0  0  0  0  0  0
  -15.7990  -10.4570   29.3230 C   0  0  0  0  0  3  0  0  0  0  0  0
  -14.9050  -10.1040   28.8530 H   0  0  0  0  0  0  0  0  0  0  0  0
  -15.8330  -10.0790   28.3230 H   0  0  0  0  0  0  0  0  0  0  0  0
  -15.7520  -10.9870   30.7260 S   0  0  1  0  0  0  0  0  0  0  0  0
  -16.1850   -9.6490   31.2460 O   0  0  0  0  0  0  0  0  0  0  0  0
  -15.3180  -12.3250   30.2050 O   0  0  0  0  0  0  0  0  0  0  0  0
  -15.7040  -11.5170   32.1270 C   0  0  0  0  0  0  0  0  0  0  0  0
  -15.4190  -12.5330   32.3060 H   0  0  0  0  0  0  0  0  0  0  0  0
  -15.9550  -10.8800   32.9490 H   0  0  0  0  0  0  0  0  0  0  0  0
  -15.6700  -11.8960   33.1280 H   0  0  0  0  0  0  0  0  0  0  0  0
  1 11  2  0
  1  2  1  0
  2  3  2  0
  3  4  1  0
  3 13  1  0
  4  5  1  0
  5  6  2  0
  6 14  1  0
  7  6  1  0
  8  7  2  0
  9 17  1  0
  9  8  1  0
 10  8  1  0
 10  4  2  0
 11 10  1  0
 12  2  1  0
 15  9  1  0
 16 11  1  0
 17 22  1  0
 18 19  1  0
 18 17  2  0
 19 20  2  0
 20 30  1  0
 20 21  1  0
 21 26  1  0
 22 21  2  0
 22 25  1  0
 23 18  1  0
 24 19  1  0
 26 28  1  0
 26 27  1  0
 29 26  1  0
 30 31  1  0
 31 33  1  0
 31 34  1  0
 32 31  1  0
 34 35  2  0
 34 39  1  0
 35 36  1  0
 36 41  1  0
 36 37  2  0
 37 42  1  0
 38 43  1  0
 38 37  1  0
 39 38  2  0
 40 35  1  0
 44 39  1  0
 46 45  1  0
 46 47  2  0
 47 48  1  0
 48 49  1  0
 48  1  1  0
 50 46  1  0
 51 47  1  0
 52 54  1  0
 53 52  1  0
 56 55  1  0
 58 57  1  0
 59 57  1  0
 60 63  1  0
 61 60  1  0
 62 60  1  0
 63 64  2  0
 63 66  1  0
 65 63  2  0
 66 67  1  0
 66 68  1  0
 66 69  1  0
M  END
>  <minimizedAffinity>  (62) 
-7.93685389

$$$$

     RDKit          3D

 48 44  0  0  0  0  0  0  0  0999 V2000
  -18.5650  -14.9180   35.4180 C   0  0  0  0  0  2  0  0  0  0  0  0
  -19.7930  -15.4320   36.1090 O   0  0  0  0  0  1  0  0  0  0  0  0
  -17.2050  -15.2700   35.9450 N   0  0  0  0  0  0  0  0  0  0  0  0
  -17.0740  -16.1370   37.1610 C   0  0  0  0  0  0  0  0  0  0  0  0
  -18.2050  -16.7220   37.9540 N   0  0  0  0  0  0  0  0  0  0  0  0
  -17.6190  -17.5180   39.0830 N   0  0  0  0  0  0  0  0  0  0  0  0
  -16.1250  -17.4240   38.9870 C   0  0  0  0  0  0  0  0  0  0  0  0
  -15.0280  -18.0060   39.8290 N   0  0  0  0  0  0  0  0  0  0  0  0
  -13.5930  -17.7340   39.4830 N   0  0  0  0  0  0  0  0  0  0  0  0
  -13.2570  -16.8810   38.2960 C   0  0  0  0  0  0  0  0  0  0  0  0
  -14.3540  -16.2990   37.4550 C   0  0  0  0  0  0  0  0  0  0  0  0
  -15.7880  -16.5710   37.8010 C   0  0  0  0  0  0  0  0  0  0  0  0
  -16.3990  -14.9330   35.4910 H   0  0  0  0  0  0  0  0  0  0  0  0
  -18.1260  -18.0140   39.7650 H   0  0  0  0  0  0  0  0  0  0  0  0
  -14.1220  -15.7120   36.6380 H   0  0  0  0  0  0  0  0  0  0  0  0
  -18.9600  -12.3180   31.7660 N   0  0  0  0  0  1  0  0  0  0  0  0
  -19.0230  -13.8110   31.6350 C   0  0  0  0  0  3  0  0  0  0  0  0
  -18.8920  -14.6780   32.8520 C   0  0  0  0  0  2  0  0  0  0  0  0
  -18.6960  -14.0510   34.2000 C   0  0  0  0  0  1  0  0  0  0  0  0
  -18.6330  -12.5580   34.3330 C   0  0  0  0  0  2  0  0  0  0  0  0
  -18.7650  -11.6910   33.1150 C   0  0  0  0  0  2  0  0  0  0  0  0
  -19.1630  -14.2580   30.6730 H   0  0  0  0  0  0  0  0  0  0  0  0
  -19.0690  -14.8760   31.5410 H   0  0  0  0  0  0  0  0  0  0  0  0
  -18.9370  -15.7420   32.7580 H   0  0  0  0  0  0  0  0  0  0  0  0
  -18.7980  -15.2950   33.7200 H   0  0  0  0  0  0  0  0  0  0  0  0
  -18.5570  -13.6040   35.1630 H   0  0  0  0  0  0  0  0  0  0  0  0
  -18.4940  -12.1120   35.2950 H   0  0  0  0  0  0  0  0  0  0  0  0
  -18.5880  -11.4930   34.4260 H   0  0  0  0  0  0  0  0  0  0  0  0
  -18.7190  -10.6270   33.2090 H   0  0  0  0  0  0  0  0  0  0  0  0
  -18.8590  -11.0740   32.2460 H   0  0  0  0  0  0  0  0  0  0  0  0
  -19.0920  -11.4510   30.5490 C   0  0  0  0  0  3  0  0  0  0  0  0
  -20.0560  -11.1120   30.2350 H   0  0  0  0  0  0  0  0  0  0  0  0
  -19.9620  -11.7300   31.1040 H   0  0  0  0  0  0  0  0  0  0  0  0
  -17.8690  -11.0600   29.7720 C   0  0  0  0  0  0  0  0  0  0  0  0
  -16.9040  -11.3990   30.0850 H   0  0  0  0  0  0  0  0  0  0  0  0
  -17.9620  -10.4420   28.9030 H   0  0  0  0  0  0  0  0  0  0  0  0
  -16.9980  -10.7810   29.2170 H   0  0  0  0  0  0  0  0  0  0  0  0
  -11.8230  -16.6090   37.9500 C   0  0  0  0  0  0  0  0  0  0  0  0
  -10.7830  -16.5780   39.0310 C   0  0  0  0  0  0  0  0  0  0  0  0
   -9.3490  -16.3070   38.6860 C   0  0  0  0  0  0  0  0  0  0  0  0
   -8.9540  -16.0660   37.2590 C   0  0  0  0  0  0  0  0  0  0  0  0
   -9.9940  -16.0970   36.1770 C   0  0  0  0  0  0  0  0  0  0  0  0
   -9.5990  -15.8570   34.7500 F   0  0  0  0  0  0  0  0  0  0  0  0
  -11.4280  -16.3690   36.5230 C   0  0  0  0  0  0  0  0  0  0  0  0
  -12.4670  -16.4000   35.4420 F   0  0  0  0  0  0  0  0  0  0  0  0
  -11.0550  -16.7440   40.0130 H   0  0  0  0  0  0  0  0  0  0  0  0
   -8.6340  -16.2850   39.4300 H   0  0  0  0  0  0  0  0  0  0  0  0
   -7.9680  -15.8790   37.0210 H   0  0  0  0  0  0  0  0  0  0  0  0
  1  3  1  0
  1  2  1  0
  3  4  1  0
  4 12  1  0
  4  5  2  0
  5  6  1  0
  6 14  1  0
  7  6  1  0
  7  8  1  0
  9  8  2  0
 10  9  1  0
 11 12  1  0
 11 10  2  0
 12  7  2  0
 13  3  1  0
 15 11  1  0
 17 16  1  0
 18 25  1  0
 19 26  1  0
 20 28  1  0
 20 27  1  0
 21 29  1  0
 22 17  1  0
 23 17  1  0
 24 18  1  0
 30 21  1  0
 31 33  1  0
 32 31  1  0
 34 35  1  0
 34 31  1  0
 36 34  1  0
 37 34  1  0
 38 10  1  0
 38 39  1  0
 39 46  1  0
 40 39  2  0
 40 47  1  0
 41 40  1  0
 42 44  1  0
 42 41  2  0
 43 42  1  0
 44 38  2  0
 45 44  1  0
 48 41  1  0
M  END
>  <minimizedAffinity>  (63) 
-10.3317232

$$$$

     RDKit          3D

 35 37  0  0  0  0  0  0  0  0999 V2000
  -15.6200  -13.5420   33.8130 O   0  0  0  0  0  0  0  0  0  0  0  0
  -14.3290  -14.2860   33.9830 C   0  0  0  0  0  0  0  0  0  0  0  0
  -13.4570  -14.8030   32.8780 N   0  0  0  0  0  0  0  0  0  0  0  0
  -12.2720  -15.4810   33.5010 C   0  0  0  0  0  0  0  0  0  0  0  0
  -11.1450  -16.1410   32.7630 O   0  0  0  0  0  0  0  0  0  0  0  0
  -12.4130  -15.3830   34.9910 C   0  0  0  0  0  0  0  0  0  0  0  0
  -13.6830  -14.6450   35.2890 C   0  0  0  0  0  0  0  0  0  0  0  0
  -13.6310  -14.7130   31.9130 H   0  0  0  0  0  0  0  0  0  0  0  0
  -11.4510  -15.9280   36.0050 C   0  0  0  0  0  0  0  0  0  0  0  0
   -9.9850  -15.6350   35.8810 C   0  0  0  0  0  0  0  0  0  0  0  0
   -9.0230  -16.1790   36.8950 C   0  0  0  0  0  0  0  0  0  0  0  0
   -9.5270  -17.0170   38.0330 C   0  0  0  0  0  0  0  0  0  0  0  0
   -8.5650  -17.5610   39.0470 Cl  0  0  0  0  0  0  0  0  0  0  0  0
  -10.9930  -17.3100   38.1570 C   0  0  0  0  0  0  0  0  0  0  0  0
  -11.9550  -16.7650   37.1430 C   0  0  0  0  0  0  0  0  0  0  0  0
   -9.6380  -15.0580   35.0980 H   0  0  0  0  0  0  0  0  0  0  0  0
   -8.0140  -15.9780   36.8100 H   0  0  0  0  0  0  0  0  0  0  0  0
  -11.3390  -17.8860   38.9390 H   0  0  0  0  0  0  0  0  0  0  0  0
  -12.9630  -16.9670   37.2280 H   0  0  0  0  0  0  0  0  0  0  0  0
  -14.2160  -14.3220   36.6540 N   0  0  0  0  0  0  0  0  0  0  0  0
  -13.8810  -13.5340   37.1390 H   0  0  0  0  0  0  0  0  0  0  0  0
  -15.2600  -15.1990   37.2790 C   0  0  0  0  0  0  0  0  0  0  0  0
  -16.6830  -15.1220   36.8120 C   0  0  0  0  0  0  0  0  0  0  0  0
  -17.7270  -15.9980   37.4370 C   0  0  0  0  0  0  0  0  0  0  0  0
  -17.3470  -16.9540   38.5300 C   0  0  0  0  0  0  0  0  0  0  0  0
  -18.3900  -17.8320   39.1560 Cl  0  0  0  0  0  0  0  0  0  0  0  0
  -15.9240  -17.0310   38.9970 C   0  0  0  0  0  0  0  0  0  0  0  0
  -14.8800  -16.1540   38.3720 C   0  0  0  0  0  0  0  0  0  0  0  0
  -16.9450  -14.4640   36.0610 H   0  0  0  0  0  0  0  0  0  0  0  0
  -18.7060  -15.9450   37.1170 H   0  0  0  0  0  0  0  0  0  0  0  0
  -13.9010  -16.2080   38.6930 H   0  0  0  0  0  0  0  0  0  0  0  0
  -15.5440  -17.9870   40.0900 C   0  0  0  0  0  0  0  0  0  0  0  0
  -15.6750  -17.5740   41.5260 O   0  0  0  0  0  0  0  0  0  0  0  0
  -15.0320  -19.3550   39.7470 O   0  0  0  0  0  0  0  0  0  0  0  0
  -14.9500  -19.6120   38.8490 H   0  0  0  0  0  0  0  0  0  0  0  0
  1  2  2  0
  2  7  1  0
  3  4  1  0
  3  2  1  0
  4  6  1  0
  5  4  2  0
  6  7  2  0
  6  9  1  0
  7 20  1  0
  8  3  1  0
  9 15  1  0
 10  9  2  0
 10 11  1  0
 11 12  2  0
 12 14  1  0
 12 13  1  0
 14 18  1  0
 15 19  1  0
 15 14  2  0
 16 10  1  0
 17 11  1  0
 20 21  1  0
 20 22  1  0
 22 28  1  0
 23 22  2  0
 23 24  1  0
 24 25  2  0
 25 27  1  0
 25 26  1  0
 27 32  1  0
 28 31  1  0
 28 27  2  0
 29 23  1  0
 30 24  1  0
 32 33  2  0
 34 32  1  0
 35 34  1  0
M  END
>  <minimizedAffinity>  (64) 
-9.47858429

$$$$

     RDKit          3D

 44 38  0  0  0  0  0  0  0  0999 V2000
  -13.3450  -15.7930   35.9730 C   0  0  0  0  0  0  0  0  0  0  0  0
  -14.4680  -16.2740   36.8440 C   0  0  0  0  0  0  0  0  0  0  0  0
  -15.7470  -15.6970   36.3150 N   0  0  0  0  0  0  0  0  0  0  0  0
  -15.4150  -14.8570   35.1170 N   0  0  0  0  0  0  0  0  0  0  0  0
  -16.2720  -14.0460   34.1910 N   0  0  0  0  0  0  0  0  0  0  0  0
  -15.6460  -13.2950   33.0540 C   0  0  0  0  0  0  0  0  0  0  0  0
  -16.5030  -12.4840   32.1280 N   0  0  0  0  0  1  0  0  0  0  0  0
  -17.9870  -12.4240   32.3390 C   0  0  0  0  0  2  0  0  0  0  0  0
  -18.8450  -11.6130   31.4130 C   0  0  0  0  0  2  0  0  0  0  0  0
  -18.2180  -10.8620   30.2760 O   0  0  0  0  0 15  0  0  0  0  0  0
  -16.7340  -10.9220   30.0650 C   0  0  0  0  0  2  0  0  0  0  0  0
  -15.8770  -11.7320   30.9910 C   0  0  0  0  0  2  0  0  0  0  0  0
  -14.1620  -13.3540   32.8420 C   0  0  0  0  0  0  0  0  0  0  0  0
  -13.3050  -14.1650   33.7680 C   0  0  0  0  0  0  0  0  0  0  0  0
  -13.9310  -14.9160   34.9050 C   0  0  0  0  0  0  0  0  0  0  0  0
  -14.3760  -16.8950   37.6630 H   0  0  0  0  0  0  0  0  0  0  0  0
  -18.4340  -12.9600   33.1510 H   0  0  0  0  0  0  0  0  0  0  0  0
  -19.0460  -12.3820   32.4900 H   0  0  0  0  0  0  0  0  0  0  0  0
  -19.9030  -11.5710   31.5640 H   0  0  0  0  0  0  0  0  0  0  0  0
  -19.4560  -11.0350   30.7530 H   0  0  0  0  0  0  0  0  0  0  0  0
  -16.2870  -10.3850   29.2530 H   0  0  0  0  0  0  0  0  0  0  0  0
  -15.6760  -10.9640   29.9140 H   0  0  0  0  0  0  0  0  0  0  0  0
  -14.8180  -11.7750   30.8400 H   0  0  0  0  0  0  0  0  0  0  0  0
  -15.2650  -12.3110   31.6510 H   0  0  0  0  0  0  0  0  0  0  0  0
  -13.7310  -12.8370   32.0600 H   0  0  0  0  0  0  0  0  0  0  0  0
  -12.2840  -14.2060   33.6230 H   0  0  0  0  0  0  0  0  0  0  0  0
   -9.4470  -16.0290   35.2710 C   0  0  0  0  0  3  0  0  0  0  0  0
  -10.8990  -15.6940   35.1040 C   0  0  0  0  0  0  0  0  0  0  0  0
  -11.8930  -16.1280   36.1400 C   0  0  0  0  0  0  0  0  0  0  0  0
  -11.4350  -16.8980   37.3430 N   0  0  0  0  0  0  0  0  0  0  0  0
   -9.9820  -17.2330   37.5100 C   0  0  0  0  0  0  0  0  0  0  0  0
   -9.5240  -18.0030   38.7130 N   0  0  0  0  0  2  0  0  0  0  0  0
   -8.9890  -16.7990   36.4740 N   0  0  0  0  0  0  0  0  0  0  0  0
   -8.7630  -15.7300   34.5580 H   0  0  0  0  0  0  0  0  0  0  0  0
  -11.2150  -15.1640   34.2760 H   0  0  0  0  0  0  0  0  0  0  0  0
  -10.1760  -18.2880   39.3930 H   0  0  0  0  0  0  0  0  0  0  0  0
   -8.0710  -18.3380   38.8810 C   0  0  0  0  0 15  0  0  0  0  0  0
   -6.9210  -19.2750   38.6630 C   0  0  0  0  0  2  0  0  0  0  0  0
   -6.7060  -17.9810   39.3890 C   0  0  0  0  0  3  0  0  0  0  0  0
   -7.0350  -18.5770   39.0010 H   0  0  0  0  0  0  0  0  0  0  0  0
   -6.5360  -20.1950   38.2750 H   0  0  0  0  0  0  0  0  0  0  0  0
   -5.8810  -19.2670   38.9130 H   0  0  0  0  0  0  0  0  0  0  0  0
   -6.0560  -17.3010   39.8970 H   0  0  0  0  0  0  0  0  0  0  0  0
   -7.3310  -17.1580   39.6710 H   0  0  0  0  0  0  0  0  0  0  0  0
  1 29  1  0
  1  2  1  0
  2 16  1  0
  3  2  2  0
  4  3  1  0
  5  4  1  0
  6  5  2  0
  7  6  1  0
  8 18  1  0
  8 17  1  0
  9 19  1  0
 12 24  1  0
 13  6  1  0
 13 14  2  0
 14 15  1  0
 15  4  1  0
 15  1  2  0
 20  9  1  0
 21 11  1  0
 22 11  1  0
 23 12  1  0
 25 13  1  0
 26 14  1  0
 27 33  1  0
 28 27  1  0
 28 29  2  0
 29 30  1  0
 30 31  2  0
 31 32  1  0
 32 36  1  0
 33 31  2  0
 34 27  1  0
 35 28  1  0
 38 42  1  0
 39 44  1  0
 39 43  1  0
 40 39  1  0
 41 38  1  0
M  END
>  <minimizedAffinity>  (65) 
-9.26786423

$$$$

     RDKit          3D

 37 39  0  0  0  0  0  0  0  0999 V2000
  -11.6540  -14.9590   34.1930 C   0  0  0  0  0  0  0  0  0  0  0  0
  -11.0310  -15.1080   35.5490 C   0  0  0  0  0  0  0  0  0  0  0  0
   -9.9690  -16.1630   35.4590 C   0  0  0  0  0  0  0  0  0  0  0  0
   -9.9360  -16.6670   34.0460 N   0  0  0  0  0  0  0  0  0  0  0  0
  -10.9770  -15.9230   33.2640 N   0  0  0  0  0  0  0  0  0  0  0  0
  -11.2880  -14.5770   36.3960 H   0  0  0  0  0  0  0  0  0  0  0  0
  -11.1810  -16.0460   32.3080 H   0  0  0  0  0  0  0  0  0  0  0  0
   -9.0950  -16.6320   36.5830 C   0  0  0  0  0  0  0  0  0  0  0  0
   -8.2840  -15.6420   37.3670 C   0  0  0  0  0  0  0  0  0  0  0  0
   -7.4090  -16.1110   38.4910 C   0  0  0  0  0  0  0  0  0  0  0  0
   -7.3450  -17.5710   38.8320 C   0  0  0  0  0  0  0  0  0  0  0  0
   -8.1550  -18.5600   38.0490 C   0  0  0  0  0  0  0  0  0  0  0  0
   -8.0900  -20.0200   38.3900 F   0  0  0  0  0  0  0  0  0  0  0  0
   -9.0300  -18.0910   36.9240 C   0  0  0  0  0  0  0  0  0  0  0  0
   -8.3290  -14.6390   37.1310 H   0  0  0  0  0  0  0  0  0  0  0  0
   -6.8520  -15.4310   39.0290 H   0  0  0  0  0  0  0  0  0  0  0  0
   -9.5870  -18.7730   36.3860 H   0  0  0  0  0  0  0  0  0  0  0  0
   -6.4690  -18.0390   39.9570 O   0  0  0  0  0  0  0  0  0  0  0  0
   -5.9640  -17.4220   40.4460 H   0  0  0  0  0  0  0  0  0  0  0  0
  -12.7600  -14.0130   33.8290 N   0  0  0  0  0  0  0  0  0  0  0  0
  -12.5630  -13.2030   33.3050 H   0  0  0  0  0  0  0  0  0  0  0  0
  -16.9800  -14.8780   35.1300 C   0  0  0  0  0  0  0  0  0  0  0  0
  -15.8300  -15.5450   35.8240 C   0  0  0  0  0  0  0  0  0  0  0  0
  -14.4230  -15.2560   35.3910 C   0  0  0  0  0  0  0  0  0  0  0  0
  -14.1670  -14.3020   34.2630 C   0  0  0  0  0  0  0  0  0  0  0  0
  -15.3170  -13.6350   33.5680 C   0  0  0  0  0  0  0  0  0  0  0  0
  -16.7240  -13.9230   34.0020 C   0  0  0  0  0  0  0  0  0  0  0  0
  -16.0060  -16.2020   36.6010 H   0  0  0  0  0  0  0  0  0  0  0  0
  -13.6310  -15.7150   35.8690 H   0  0  0  0  0  0  0  0  0  0  0  0
  -15.1410  -12.9780   32.7920 H   0  0  0  0  0  0  0  0  0  0  0  0
  -17.5150  -13.4650   33.5240 H   0  0  0  0  0  0  0  0  0  0  0  0
  -18.3870  -15.1670   35.5640 S   0  0  2  0  0  0  0  0  0  0  0  0
  -18.0150  -14.8490   36.9820 O   0  0  0  0  0  0  0  0  0  0  0  0
  -18.7590  -15.4840   34.1460 O   0  0  0  0  0  0  0  0  0  0  0  0
  -19.7940  -15.4550   35.9970 N   0  0  0  0  0  0  0  0  0  0  0  0
  -20.0530  -15.3660   36.9790 H   0  0  0  0  0  0  0  0  0  0  0  0
  -20.4910  -15.7400   35.3100 H   0  0  0  0  0  0  0  0  0  0  0  0
  1  2  2  0
  2  6  1  0
  3  2  1  0
  3  8  1  0
  4  3  2  0
  5  4  1  0
  5  1  1  0
  7  5  1  0
  8 14  2  0
  8  9  1  0
  9 10  2  0
 10 11  1  0
 10 16  1  0
 11 18  1  0
 12 13  1  0
 12 11  2  0
 14 12  1  0
 15  9  1  0
 17 14  1  0
 18 19  1  0
 20  1  1  0
 20 25  1  0
 21 20  1  0
 22 32  1  0
 22 23  1  0
 23 28  1  0
 24 23  2  0
 24 29  1  0
 25 24  1  0
 26 27  1  0
 26 25  2  0
 27 22  2  0
 30 26  1  0
 31 27  1  0
 32 35  1  0
 32 33  2  0
 34 32  2  0
 35 36  1  0
 37 35  1  0
M  END
>  <minimizedAffinity>  (66) 
-8.77748108

$$$$

     RDKit          3D

 38 40  0  0  0  0  0  0  0  0999 V2000
  -16.7380  -16.6170   39.7130 C   0  0  0  0  0  0  0  0  0  0  0  0
  -17.0700  -17.1830   38.3640 C   0  0  0  0  0  0  0  0  0  0  0  0
  -16.3010  -16.7410   37.1550 C   0  0  0  0  0  0  0  0  0  0  0  0
  -15.2000  -15.7320   37.2940 C   0  0  0  0  0  0  0  0  0  0  0  0
  -14.8680  -15.1660   38.6430 C   0  0  0  0  0  0  0  0  0  0  0  0
  -15.6370  -15.6090   39.8520 C   0  0  0  0  0  0  0  0  0  0  0  0
  -17.8280  -17.8780   38.2680 H   0  0  0  0  0  0  0  0  0  0  0  0
  -16.5300  -17.1300   36.2270 H   0  0  0  0  0  0  0  0  0  0  0  0
  -14.1100  -14.4720   38.7390 H   0  0  0  0  0  0  0  0  0  0  0  0
  -14.4310  -15.2890   36.0850 N   0  0  0  0  0  0  0  0  0  0  0  0
  -12.9540  -15.5360   36.0040 C   0  0  0  0  0  0  0  0  0  0  0  0
  -12.0570  -15.1520   34.8640 N   0  0  0  0  0  0  0  0  0  0  0  0
  -10.6630  -15.5880   35.2030 C   0  0  0  0  0  0  0  0  0  0  0  0
  -10.6980  -16.2420   36.5530 C   0  0  0  0  0  0  0  0  0  0  0  0
  -12.1140  -16.2090   37.0470 O   0  0  0  0  0  0  0  0  0  0  0  0
  -14.8970  -14.8360   35.3440 H   0  0  0  0  0  0  0  0  0  0  0  0
   -9.8270  -15.4610   34.6130 H   0  0  0  0  0  0  0  0  0  0  0  0
   -9.5230  -16.8260   37.2810 C   0  0  0  0  0  0  0  0  0  0  0  0
   -9.3250  -18.3120   37.3150 C   0  0  0  0  0  0  0  0  0  0  0  0
   -8.1500  -18.8960   38.0430 C   0  0  0  0  0  0  0  0  0  0  0  0
   -7.1740  -17.9930   38.7360 C   0  0  0  0  0  0  0  0  0  0  0  0
   -7.3720  -16.5060   38.7010 C   0  0  0  0  0  0  0  0  0  0  0  0
   -8.5470  -15.9230   37.9730 C   0  0  0  0  0  0  0  0  0  0  0  0
   -9.9980  -18.9330   36.8380 H   0  0  0  0  0  0  0  0  0  0  0  0
   -8.0150  -19.9180   38.0670 H   0  0  0  0  0  0  0  0  0  0  0  0
   -6.3660  -18.3950   39.2370 H   0  0  0  0  0  0  0  0  0  0  0  0
   -6.6990  -15.8850   39.1780 H   0  0  0  0  0  0  0  0  0  0  0  0
   -8.6820  -14.9000   37.9500 H   0  0  0  0  0  0  0  0  0  0  0  0
  -17.5070  -17.0600   40.9230 O   0  0  0  0  0  0  0  0  0  0  0  0
  -17.4380  -18.4890   41.3730 C   0  0  0  0  0  0  0  0  0  0  0  0
  -16.8400  -19.1930   40.8320 H   0  0  0  0  0  0  0  0  0  0  0  0
  -17.9860  -18.8050   42.2360 H   0  0  0  0  0  0  0  0  0  0  0  0
  -17.3880  -19.5090   41.6950 H   0  0  0  0  0  0  0  0  0  0  0  0
  -15.3040  -15.0430   41.2010 O   0  0  0  0  0  0  0  0  0  0  0  0
  -13.8880  -14.6740   41.5310 C   0  0  0  0  0  0  0  0  0  0  0  0
  -13.6510  -14.2700   42.4940 H   0  0  0  0  0  0  0  0  0  0  0  0
  -13.1150  -14.8140   40.8050 H   0  0  0  0  0  0  0  0  0  0  0  0
  -12.8780  -14.4110   41.7670 H   0  0  0  0  0  0  0  0  0  0  0  0
  1  6  1  0
  1 29  1  0
  2  1  2  0
  3  4  2  0
  3  2  1  0
  4  5  1  0
  5  9  1  0
  5  6  2  0
  6 34  1  0
  7  2  1  0
  8  3  1  0
 10  4  1  0
 11 10  1  0
 11 15  1  0
 12 13  1  0
 12 11  2  0
 13 14  2  0
 14 15  1  0
 14 18  1  0
 16 10  1  0
 17 13  1  0
 18 19  2  0
 18 23  1  0
 19 20  1  0
 20 25  1  0
 20 21  2  0
 21 26  1  0
 22 21  1  0
 22 27  1  0
 23 22  2  0
 24 19  1  0
 28 23  1  0
 29 30  1  0
 30 33  1  0
 30 32  1  0
 31 30  1  0
 34 35  1  0
 35 38  1  0
 35 36  1  0
 37 35  1  0
M  END
>  <minimizedAffinity>  (67) 
-7.75508928

$$$$

     RDKit          3D

 53 56  0  0  0  0  0  0  0  0999 V2000
  -17.3780  -15.5440   38.9020 C   0  0  0  0  0  0  0  0  0  0  0  0
  -17.8410  -14.1600   38.5550 C   0  0  0  0  0  0  0  0  0  0  0  0
  -18.4910  -13.8980   37.2290 C   0  0  0  0  0  0  0  0  0  0  0  0
  -18.6780  -15.0190   36.2500 C   0  0  0  0  0  0  0  0  0  0  0  0
  -18.2150  -16.4030   36.5980 C   0  0  0  0  0  0  0  0  0  0  0  0
  -17.5650  -16.6650   37.9240 C   0  0  0  0  0  0  0  0  0  0  0  0
  -17.7120  -13.3890   39.2280 H   0  0  0  0  0  0  0  0  0  0  0  0
  -18.8090  -12.9460   36.9900 H   0  0  0  0  0  0  0  0  0  0  0  0
  -18.3440  -17.1750   35.9240 H   0  0  0  0  0  0  0  0  0  0  0  0
  -17.2460  -17.6180   38.1630 H   0  0  0  0  0  0  0  0  0  0  0  0
  -19.3280  -14.7570   34.9240 N   0  0  0  0  0  0  0  0  0  0  0  0
  -18.8940  -13.5840   34.0950 C   0  0  0  0  0  0  0  0  0  0  0  0
  -17.8100  -12.6740   34.5920 O   0  0  0  0  0  0  0  0  0  0  0  0
  -19.5440  -13.3220   32.7690 N   0  0  0  0  0  0  0  0  0  0  0  0
  -20.0400  -15.3540   34.5980 H   0  0  0  0  0  0  0  0  0  0  0  0
  -20.2560  -13.9190   32.4430 H   0  0  0  0  0  0  0  0  0  0  0  0
  -19.1100  -12.1490   31.9400 C   0  0  0  0  0  0  0  0  0  0  0  0
  -18.5520  -12.3690   30.5650 C   0  0  0  0  0  0  0  0  0  0  0  0
  -18.1180  -11.1960   29.7360 C   0  0  0  0  0  0  0  0  0  0  0  0
  -18.2420   -9.8050   30.2820 C   0  0  0  0  0  0  0  0  0  0  0  0
  -18.8000   -9.5860   31.6570 C   0  0  0  0  0  0  0  0  0  0  0  0
  -19.2340  -10.7580   32.4860 C   0  0  0  0  0  0  0  0  0  0  0  0
  -19.7920  -10.5390   33.8610 F   0  0  0  0  0  0  0  0  0  0  0  0
  -18.4670  -13.3260   30.1890 H   0  0  0  0  0  0  0  0  0  0  0  0
  -17.9440   -8.9980   29.7120 H   0  0  0  0  0  0  0  0  0  0  0  0
  -18.8860   -8.6280   32.0330 H   0  0  0  0  0  0  0  0  0  0  0  0
  -17.5600  -11.4160   28.3610 C   0  0  0  0  0  0  0  0  0  0  0  0
  -17.0020  -11.6350   26.9860 F   0  0  0  0  0  0  0  0  0  0  0  0
  -18.9470  -11.3760   27.7920 F   0  0  0  0  0  0  0  0  0  0  0  0
  -16.1730  -11.4550   28.9310 F   0  0  0  0  0  0  0  0  0  0  0  0
  -16.7280  -15.8070   40.2290 S   0  0  0  0  0  0  0  0  0  0  0  0
   -8.9160  -17.8250   37.6920 C   0  0  0  0  0  0  0  0  0  0  0  0
  -10.1280  -18.3530   36.9830 O   0  0  0  0  0  0  0  0  0  0  0  0
   -9.0760  -16.9190   38.8760 N   0  0  0  0  0  0  0  0  0  0  0  0
  -10.4470  -16.5410   39.3520 C   0  0  0  0  0  0  0  0  0  0  0  0
  -10.7610  -15.6490   40.5170 N   0  0  0  0  0  0  0  0  0  0  0  0
  -12.2530  -15.5460   40.6320 C   0  0  0  0  0  0  0  0  0  0  0  0
  -13.1370  -14.8050   41.5910 C   0  0  0  0  0  0  0  0  0  0  0  0
  -14.6290  -14.8920   41.4560 C   0  0  0  0  0  0  0  0  0  0  0  0
  -15.2360  -15.7200   40.3630 C   0  0  0  0  0  0  0  0  0  0  0  0
  -14.3520  -16.4610   39.4040 C   0  0  0  0  0  0  0  0  0  0  0  0
  -12.8610  -16.3740   39.5380 C   0  0  0  0  0  0  0  0  0  0  0  0
  -11.7440  -16.9900   38.7470 N   0  0  0  0  0  0  0  0  0  0  0  0
   -8.2800  -16.5730   39.3420 H   0  0  0  0  0  0  0  0  0  0  0  0
  -12.7190  -14.2350   42.3430 H   0  0  0  0  0  0  0  0  0  0  0  0
  -15.2370  -14.3820   42.1160 H   0  0  0  0  0  0  0  0  0  0  0  0
  -14.7710  -17.0310   38.6520 H   0  0  0  0  0  0  0  0  0  0  0  0
  -11.8460  -17.5830   37.9690 H   0  0  0  0  0  0  0  0  0  0  0  0
   -7.5450  -18.2030   37.2160 O   0  0  0  0  0  0  0  0  0  0  0  0
   -6.6820  -19.1020   38.0510 C   0  0  0  0  0  0  0  0  0  0  0  0
   -7.0450  -19.4740   38.9860 H   0  0  0  0  0  0  0  0  0  0  0  0
   -5.7040  -19.3710   37.7110 H   0  0  0  0  0  0  0  0  0  0  0  0
   -6.0670  -19.7430   38.6470 H   0  0  0  0  0  0  0  0  0  0  0  0
  1 31  1  0
  2  1  1  0
  2  7  1  0
  3  2  2  0
  4  5  2  0
  4  3  1  0
  5  6  1  0
  6 10  1  0
  6  1  2  0
  8  3  1  0
  9  5  1  0
 11  4  1  0
 12 13  2  0
 12 11  1  0
 14 12  1  0
 15 11  1  0
 16 14  1  0
 17 22  1  0
 17 14  1  0
 18 17  2  0
 19 20  2  0
 19 18  1  0
 20 21  1  0
 21 26  1  0
 21 22  2  0
 22 23  1  0
 24 18  1  0
 25 20  1  0
 27 30  1  0
 27 19  1  0
 28 27  1  0
 29 27  1  0
 31 40  1  0
 32 34  1  0
 33 32  2  0
 34 44  1  0
 34 35  1  0
 35 36  2  0
 36 37  1  0
 37 38  1  0
 38 45  1  0
 39 38  2  0
 39 46  1  0
 40 39  1  0
 41 42  1  0
 41 40  2  0
 42 37  2  0
 43 35  1  0
 43 42  1  0
 47 41  1  0
 48 43  1  0
 49 32  1  0
 49 50  1  0
 50 53  1  0
 50 51  1  0
 52 50  1  0
M  END
>  <minimizedAffinity>  (68) 
-5.26464558

$$$$

     RDKit          3D

 57 59  0  0  1  0  0  0  0  0999 V2000
  -14.2190  -14.8980   36.7210 N   0  0  0  0  0  0  0  0  0  0  0  0
  -15.6870  -15.1830   36.8340 C   0  0  0  0  0  3  0  0  0  0  0  0
  -16.5430  -15.2050   35.6020 N   0  0  0  0  0  0  0  0  0  0  0  0
  -18.0120  -15.4900   35.7150 C   0  0  0  0  0  0  0  0  0  0  0  0
  -18.6240  -15.7520   37.0590 N   0  0  0  0  0  2  0  0  0  0  0  0
  -17.7680  -15.7300   38.2900 C   0  0  0  0  0  0  0  0  0  0  0  0
  -18.3800  -15.9920   39.6340 C   0  0  0  0  0  0  0  0  0  0  0  0
  -17.5240  -15.9700   40.8650 C   0  0  0  0  0  0  0  0  0  0  0  0
  -16.0560  -15.6850   40.7530 C   0  0  0  0  0  0  0  0  0  0  0  0
  -15.4430  -15.4230   39.4090 C   0  0  0  0  0  0  0  0  0  0  0  0
  -16.3000  -15.4450   38.1780 C   0  0  0  0  0  0  0  0  0  0  0  0
  -13.6560  -14.8840   37.5290 H   0  0  0  0  0  0  0  0  0  0  0  0
  -18.6010  -15.5050   34.8670 H   0  0  0  0  0  0  0  0  0  0  0  0
  -19.3910  -16.1880   39.7110 H   0  0  0  0  0  0  0  0  0  0  0  0
  -17.9460  -16.1500   41.7900 H   0  0  0  0  0  0  0  0  0  0  0  0
  -14.4330  -15.2270   39.3320 H   0  0  0  0  0  0  0  0  0  0  0  0
  -13.8320  -13.8100   32.9240 C   0  0  0  0  0  0  0  0  0  0  0  0
  -12.3820  -14.1110   32.6890 C   0  0  0  0  0  0  0  0  0  0  0  0
  -11.5440  -14.6750   33.7980 C   0  0  0  0  0  0  0  0  0  0  0  0
  -12.1560  -14.9370   35.1420 C   0  0  0  0  0  0  0  0  0  0  0  0
  -13.6060  -14.6360   35.3770 C   0  0  0  0  0  0  0  0  0  0  0  0
  -14.4450  -14.0730   34.2680 C   0  0  0  0  0  0  0  0  0  0  0  0
  -11.9600  -13.9310   31.7650 H   0  0  0  0  0  0  0  0  0  0  0  0
  -10.5450  -14.8820   33.6370 H   0  0  0  0  0  0  0  0  0  0  0  0
  -11.5790  -15.3250   35.9050 H   0  0  0  0  0  0  0  0  0  0  0  0
  -15.4430  -13.8650   34.4300 H   0  0  0  0  0  0  0  0  0  0  0  0
  -15.5080  -12.6830   30.7060 C   0  0  0  0  0  0  0  0  0  0  0  0
  -14.6700  -13.2470   31.8150 C   0  0  0  0  0  0  0  0  0  0  0  0
  -16.0640  -12.3100   29.9710 H   0  0  0  0  0  0  0  0  0  0  0  0
  -15.2000  -15.6630   41.9850 O   0  0  0  0  0  0  0  0  0  0  0  0
  -13.8750  -14.9590   41.9640 C   0  0  0  0  0  0  0  0  0  0  0  0
  -13.8350  -13.8920   42.0340 H   0  0  0  0  0  0  0  0  0  0  0  0
  -12.9300  -14.4570   41.9500 H   0  0  0  0  0  0  0  0  0  0  0  0
  -12.6070  -15.7510   41.8470 C   0  0  0  0  0  0  0  0  0  0  0  0
  -12.2210  -16.2730   42.6980 H   0  0  0  0  0  0  0  0  0  0  0  0
  -11.7020  -16.3170   41.7630 H   0  0  0  0  0  0  0  0  0  0  0  0
  -11.8800  -15.8130   40.5360 C   0  0  0  0  0  0  0  0  0  0  0  0
  -11.0460  -15.1680   40.3560 H   0  0  0  0  0  0  0  0  0  0  0  0
  -11.3610  -15.8560   39.6010 H   0  0  0  0  0  0  0  0  0  0  0  0
  -12.3230  -16.7780   39.4770 C   0  0  0  0  0  0  0  0  0  0  0  0
  -12.9640  -17.5960   39.7330 H   0  0  0  0  0  0  0  0  0  0  0  0
  -12.6390  -17.4670   38.7220 H   0  0  0  0  0  0  0  0  0  0  0  0
  -11.8680  -16.5970   38.0590 N   0  0  0  0  0  0  0  0  0  0  0  0
  -12.2510  -15.8400   37.4940 H   0  0  0  0  0  0  0  0  0  0  0  0
  -10.8500  -17.5290   37.4730 C   0  0  0  0  0  0  0  0  0  0  0  0
  -11.0950  -18.5590   37.3160 H   0  0  0  0  0  0  0  0  0  0  0  0
  -10.1230  -18.1950   37.0550 H   0  0  0  0  0  0  0  0  0  0  0  0
   -9.4870  -17.0190   37.1080 C   0  0  0  0  0  0  0  0  0  0  0  0
   -9.3300  -16.5410   36.1650 H   0  0  0  0  0  0  0  0  0  0  0  0
   -8.5150  -16.6540   36.8480 H   0  0  0  0  0  0  0  0  0  0  0  0
   -8.3450  -17.1790   38.0670 S   0  0  2  0  0  0  0  0  0  0  0  0
   -7.8870  -18.3950   37.3190 O   0  0  0  0  0  0  0  0  0  0  0  0
   -8.8020  -15.9620   38.8150 O   0  0  0  0  0  0  0  0  0  0  0  0
   -7.2020  -17.3380   39.0260 C   0  0  0  0  0  0  0  0  0  0  0  0
   -7.0770  -16.6440   39.8300 H   0  0  0  0  0  0  0  0  0  0  0  0
   -6.5120  -18.1470   38.9050 H   0  0  0  0  0  0  0  0  0  0  0  0
   -6.3870  -17.4530   39.7100 H   0  0  0  0  0  0  0  0  0  0  0  0
  1 12  1  0
  2  1  1  0
  2 11  1  0
  3  4  2  0
  3  2  1  0
  4  5  1  0
  5  6  1  0
  6  7  1  0
  7 14  1  0
  7  8  2  0
  8 15  1  0
  9  8  1  0
  9 30  1  0
 10  9  2  0
 11  6  2  0
 11 10  1  0
 13  4  1  0
 16 10  1  0
 17 22  1  0
 18 17  2  0
 18 19  1  0
 19 20  2  0
 20 21  1  0
 20 25  1  0
 21  1  1  0
 22 26  1  0
 22 21  2  0
 23 18  1  0
 24 19  1  0
 27 28  3  0
 28 17  1  0
 29 27  1  0
 31 30  1  0
 31 32  1  0
 33 31  1  0
 34 31  1  0
 34 35  1  0
 36 34  1  0
 37 34  1  0
 38 37  1  0
 39 37  1  0
 40 41  1  0
 40 37  1  0
 42 40  1  0
 43 40  1  0
 44 43  1  0
 45 43  1  0
 46 45  1  0
 47 45  1  0
 48 45  1  0
 48 51  1  0
 49 48  1  0
 50 48  1  0
 51 53  2  0
 51 54  1  0
 52 51  2  0
 54 57  1  0
 54 55  1  0
 56 54  1  0
M  END
>  <minimizedAffinity>  (69) 
-11.2507124

$$$$

     RDKit          3D

 37 39  0  0  0  0  0  0  0  0999 V2000
  -10.9470  -16.1280   36.3420 C   0  0  0  0  0  0  0  0  0  0  0  0
  -11.6580  -15.4100   35.2340 C   0  0  0  0  0  0  0  0  0  0  0  0
  -13.1180  -15.0910   35.3630 C   0  0  0  0  0  0  0  0  0  0  0  0
  -13.8670  -15.4900   36.6000 C   0  0  0  0  0  0  0  0  0  0  0  0
  -13.1560  -16.2080   37.7080 C   0  0  0  0  0  0  0  0  0  0  0  0
  -11.6960  -16.5280   37.5790 C   0  0  0  0  0  0  0  0  0  0  0  0
  -11.1430  -15.1350   34.3830 H   0  0  0  0  0  0  0  0  0  0  0  0
  -14.8710  -15.2700   36.6880 H   0  0  0  0  0  0  0  0  0  0  0  0
  -13.8290  -14.3720   34.2550 C   0  0  0  0  0  0  0  0  0  0  0  0
  -13.0590  -13.8780   33.0660 C   0  0  0  0  0  0  0  0  0  0  0  0
  -13.7710  -13.1600   31.9580 C   0  0  0  0  0  0  0  0  0  0  0  0
  -15.2520  -12.9350   32.0390 C   0  0  0  0  0  0  0  0  0  0  0  0
  -15.9630  -12.2170   30.9300 F   0  0  0  0  0  0  0  0  0  0  0  0
  -16.0210  -13.4290   33.2270 C   0  0  0  0  0  0  0  0  0  0  0  0
  -15.3100  -14.1480   34.3360 C   0  0  0  0  0  0  0  0  0  0  0  0
  -12.0400  -14.0330   33.0100 H   0  0  0  0  0  0  0  0  0  0  0  0
  -13.2410  -12.8200   31.1400 H   0  0  0  0  0  0  0  0  0  0  0  0
  -17.0400  -13.2750   33.2830 H   0  0  0  0  0  0  0  0  0  0  0  0
  -15.8400  -14.4880   35.1540 H   0  0  0  0  0  0  0  0  0  0  0  0
  -13.9040  -16.6080   38.9450 C   0  0  0  0  0  0  0  0  0  0  0  0
  -14.7830  -17.8240   38.9300 C   0  0  0  0  0  0  0  0  0  0  0  0
  -15.5310  -18.2230   40.1670 C   0  0  0  0  0  0  0  0  0  0  0  0
  -15.4020  -17.4060   41.4190 N   0  0  0  0  0  0  0  0  0  0  0  0
  -14.5240  -16.1900   41.4330 C   0  0  0  0  0  0  0  0  0  0  0  0
  -13.7750  -15.7910   40.1960 C   0  0  0  0  0  0  0  0  0  0  0  0
  -14.8720  -18.3850   38.0690 H   0  0  0  0  0  0  0  0  0  0  0  0
  -16.1360  -19.0600   40.1570 H   0  0  0  0  0  0  0  0  0  0  0  0
  -14.4350  -15.6280   42.2940 H   0  0  0  0  0  0  0  0  0  0  0  0
  -13.1710  -14.9540   40.2060 H   0  0  0  0  0  0  0  0  0  0  0  0
   -8.9550  -17.0230   34.9350 N   0  0  0  0  0  0  0  0  0  0  0  0
   -9.4870  -16.4480   36.2140 C   0  0  0  0  0  0  0  0  0  0  0  0
   -8.5590  -16.1910   37.3640 O   0  0  0  0  0  0  0  0  0  0  0  0
   -9.5640  -17.1920   34.1790 H   0  0  0  0  0  0  0  0  0  0  0  0
   -7.9970  -17.2330   34.8500 H   0  0  0  0  0  0  0  0  0  0  0  0
  -10.9840  -17.2460   38.6870 N   0  0  0  0  0  0  0  0  0  0  0  0
  -10.0270  -17.4550   38.6030 H   0  0  0  0  0  0  0  0  0  0  0  0
  -11.4760  -17.5080   39.5000 H   0  0  0  0  0  0  0  0  0  0  0  0
  1  6  1  0
  2  3  1  0
  2  1  2  0
  3  4  2  0
  4  8  1  0
  4  5  1  0
  5 20  1  0
  6  5  2  0
  6 35  1  0
  7  2  1  0
  9 15  1  0
  9  3  1  0
 10  9  2  0
 11 12  2  0
 11 10  1  0
 12 14  1  0
 13 12  1  0
 14 18  1  0
 14 15  2  0
 15 19  1  0
 16 10  1  0
 17 11  1  0
 20 25  1  0
 21 20  2  0
 21 22  1  0
 22 23  2  0
 23 24  1  0
 24 28  1  0
 25 29  1  0
 25 24  2  0
 26 21  1  0
 27 22  1  0
 30 31  1  0
 31  1  1  0
 31 32  2  0
 33 30  1  0
 34 30  1  0
 35 37  1  0
 36 35  1  0
M  END
>  <minimizedAffinity>  (70) 
-9.10634136

$$$$

     RDKit          3D

 38 41  0  0  0  0  0  0  0  0999 V2000
  -12.6410  -15.7780   36.3870 C   0  0  0  0  0  0  0  0  0  0  0  0
  -11.1920  -15.8040   36.0000 C   0  0  0  0  0  0  0  0  0  0  0  0
  -11.0440  -15.0720   34.7000 N   0  0  0  0  0  0  0  0  0  0  0  0
  -12.4030  -14.5920   34.2820 N   0  0  0  0  0  0  0  0  0  0  0  0
  -12.8690  -13.8150   33.0870 C   0  0  0  0  0  0  0  0  0  0  0  0
  -14.3220  -13.4740   32.9340 C   0  0  0  0  0  0  0  0  0  0  0  0
  -15.3080  -13.9100   33.9760 C   0  0  0  0  0  0  0  0  0  0  0  0
  -14.8420  -14.6880   35.1710 C   0  0  0  0  0  0  0  0  0  0  0  0
  -13.3900  -15.0290   35.3240 C   0  0  0  0  0  0  0  0  0  0  0  0
  -12.1900  -13.5140   32.3700 H   0  0  0  0  0  0  0  0  0  0  0  0
  -16.3080  -13.6760   33.8710 H   0  0  0  0  0  0  0  0  0  0  0  0
  -15.5210  -14.9880   35.8880 H   0  0  0  0  0  0  0  0  0  0  0  0
  -12.8370  -16.1990   41.5610 N   0  0  0  0  0  0  0  0  0  0  0  0
  -13.3350  -16.6040   40.2060 C   0  0  0  0  0  0  0  0  0  0  0  0
  -14.4290  -17.6220   40.0810 N   0  0  0  0  0  0  0  0  0  0  0  0
  -14.9270  -18.0260   38.7250 C   0  0  0  0  0  0  0  0  0  0  0  0
  -14.3310  -17.4110   37.4940 C   0  0  0  0  0  0  0  0  0  0  0  0
  -13.2370  -16.3930   37.6170 C   0  0  0  0  0  0  0  0  0  0  0  0
  -12.7390  -15.9890   38.9730 N   0  0  0  0  0  0  0  0  0  0  0  0
  -13.2280  -16.6030   42.3700 H   0  0  0  0  0  0  0  0  0  0  0  0
  -12.1190  -15.5310   41.6430 H   0  0  0  0  0  0  0  0  0  0  0  0
  -15.6800  -18.7270   38.6390 H   0  0  0  0  0  0  0  0  0  0  0  0
  -14.6730  -17.6890   36.5600 H   0  0  0  0  0  0  0  0  0  0  0  0
  -10.0840  -16.4500   36.7780 C   0  0  0  0  0  0  0  0  0  0  0  0
   -9.9810  -17.9460   36.8370 C   0  0  0  0  0  0  0  0  0  0  0  0
   -8.8730  -18.5910   37.6150 C   0  0  0  0  0  0  0  0  0  0  0  0
   -7.8680  -17.7420   38.3350 C   0  0  0  0  0  0  0  0  0  0  0  0
   -6.7600  -18.3880   39.1130 F   0  0  0  0  0  0  0  0  0  0  0  0
   -7.9710  -16.2470   38.2760 C   0  0  0  0  0  0  0  0  0  0  0  0
   -9.0790  -15.6010   37.4980 C   0  0  0  0  0  0  0  0  0  0  0  0
  -10.6730  -18.5300   36.3410 H   0  0  0  0  0  0  0  0  0  0  0  0
   -8.8030  -19.6200   37.6550 H   0  0  0  0  0  0  0  0  0  0  0  0
   -7.2790  -15.6620   38.7720 H   0  0  0  0  0  0  0  0  0  0  0  0
   -9.1490  -14.5720   37.4580 H   0  0  0  0  0  0  0  0  0  0  0  0
  -14.7880  -12.6960   31.7390 C   0  0  0  0  0  0  0  0  0  0  0  0
  -15.2540  -11.9180   30.5440 F   0  0  0  0  0  0  0  0  0  0  0  0
  -15.4910  -11.7280   32.6440 F   0  0  0  0  0  0  0  0  0  0  0  0
  -14.0850  -13.6640   30.8350 F   0  0  0  0  0  0  0  0  0  0  0  0
  1 18  1  0
  2  1  1  0
  2 24  1  0
  3  2  2  0
  4  3  1  0
  4  9  1  0
  5  4  1  0
  6  5  2  0
  6  7  1  0
  7  8  2  0
  8  9  1  0
  8 12  1  0
  9  1  2  0
 10  5  1  0
 11  7  1  0
 13 21  1  0
 13 20  1  0
 14 13  1  0
 15 14  2  0
 16 15  1  0
 17 18  1  0
 17 16  2  0
 18 19  2  0
 19 14  1  0
 22 16  1  0
 23 17  1  0
 24 25  2  0
 24 30  1  0
 25 26  1  0
 26 32  1  0
 26 27  2  0
 27 28  1  0
 29 27  1  0
 29 33  1  0
 30 29  2  0
 31 25  1  0
 34 30  1  0
 35 37  1  0
 35  6  1  0
 36 35  1  0
 38 35  1  0
M  END
>  <minimizedAffinity>  (71) 
-9.34444618

$$$$

     RDKit          3D

 53 56  0  0  0  0  0  0  0  0999 V2000
  -10.2530  -16.3270   35.7080 C   0  0  0  0  0  0  0  0  0  0  0  0
   -9.0060  -17.1530   35.8160 C   0  0  0  0  0  0  0  0  0  0  0  0
   -8.7130  -17.9070   37.0790 C   0  0  0  0  0  0  0  0  0  0  0  0
   -9.6670  -17.8350   38.2350 C   0  0  0  0  0  0  0  0  0  0  0  0
  -10.9140  -17.0090   38.1270 C   0  0  0  0  0  0  0  0  0  0  0  0
  -11.2070  -16.2550   36.8640 C   0  0  0  0  0  0  0  0  0  0  0  0
   -8.3490  -17.2030   35.0210 H   0  0  0  0  0  0  0  0  0  0  0  0
   -7.8550  -18.4760   37.1540 H   0  0  0  0  0  0  0  0  0  0  0  0
   -9.4650  -18.3540   39.1040 H   0  0  0  0  0  0  0  0  0  0  0  0
  -12.0650  -15.6860   36.7900 H   0  0  0  0  0  0  0  0  0  0  0  0
  -11.8680  -16.9370   39.2820 N   0  0  0  0  0  0  0  0  0  0  0  0
  -13.3420  -17.0920   39.0490 C   0  0  0  0  0  0  0  0  0  0  0  0
  -13.8610  -17.3190   37.6600 O   0  0  0  0  0  0  0  0  0  0  0  0
  -14.2960  -17.0200   40.2040 N   0  0  0  0  0  0  0  0  0  0  0  0
  -11.5270  -16.7880   40.1940 H   0  0  0  0  0  0  0  0  0  0  0  0
  -13.9550  -16.8700   41.1150 H   0  0  0  0  0  0  0  0  0  0  0  0
  -15.7690  -17.1750   39.9700 C   0  0  0  0  0  0  0  0  0  0  0  0
  -16.4320  -16.4360   38.8460 C   0  0  0  0  0  0  0  0  0  0  0  0
  -17.9060  -16.5910   38.6120 C   0  0  0  0  0  0  0  0  0  0  0  0
  -18.7170  -17.4850   39.5030 C   0  0  0  0  0  0  0  0  0  0  0  0
  -18.0540  -18.2230   40.6280 C   0  0  0  0  0  0  0  0  0  0  0  0
  -16.5800  -18.0680   40.8610 C   0  0  0  0  0  0  0  0  0  0  0  0
  -15.9170  -18.8070   41.9860 F   0  0  0  0  0  0  0  0  0  0  0  0
  -15.8750  -15.8210   38.2330 H   0  0  0  0  0  0  0  0  0  0  0  0
  -19.7300  -17.5910   39.3430 H   0  0  0  0  0  0  0  0  0  0  0  0
  -18.6110  -18.8390   41.2410 H   0  0  0  0  0  0  0  0  0  0  0  0
  -18.5690  -15.8520   37.4880 C   0  0  0  0  0  0  0  0  0  0  0  0
  -19.2320  -15.1130   36.3630 F   0  0  0  0  0  0  0  0  0  0  0  0
  -19.7950  -15.6670   38.3320 F   0  0  0  0  0  0  0  0  0  0  0  0
  -17.3430  -16.0370   36.6430 F   0  0  0  0  0  0  0  0  0  0  0  0
  -10.5460  -15.5730   34.4450 O   0  0  0  0  0  0  0  0  0  0  0  0
  -17.9110  -11.4700   31.5740 C   0  0  0  0  0  0  0  0  0  0  0  0
  -18.3240  -11.9100   32.9470 O   0  0  0  0  0  0  0  0  0  0  0  0
  -16.5340  -11.7820   31.0690 N   0  0  0  0  0  0  0  0  0  0  0  0
  -15.5690  -12.5350   31.9370 C   0  0  0  0  0  0  0  0  0  0  0  0
  -14.1660  -12.9170   31.5700 N   0  0  0  0  0  0  0  0  0  0  0  0
  -13.5690  -13.6550   32.7310 C   0  0  0  0  0  0  0  0  0  0  0  0
  -12.2160  -14.2700   32.9410 C   0  0  0  0  0  0  0  0  0  0  0  0
  -11.8980  -14.9580   34.2350 C   0  0  0  0  0  0  0  0  0  0  0  0
  -12.9320  -15.0320   35.3200 C   0  0  0  0  0  0  0  0  0  0  0  0
  -14.2840  -14.4170   35.1100 C   0  0  0  0  0  0  0  0  0  0  0  0
  -14.6020  -13.7290   33.8160 C   0  0  0  0  0  0  0  0  0  0  0  0
  -15.8400  -13.0360   33.3250 N   0  0  0  0  0  0  0  0  0  0  0  0
  -16.2630  -11.4930   30.1670 H   0  0  0  0  0  0  0  0  0  0  0  0
  -11.5050  -14.2190   32.1950 H   0  0  0  0  0  0  0  0  0  0  0  0
  -12.7130  -15.5050   36.2100 H   0  0  0  0  0  0  0  0  0  0  0  0
  -14.9960  -14.4680   35.8560 H   0  0  0  0  0  0  0  0  0  0  0  0
  -16.6800  -12.9290   33.8250 H   0  0  0  0  0  0  0  0  0  0  0  0
  -18.8750  -10.7180   30.7050 O   0  0  0  0  0  0  0  0  0  0  0  0
  -18.3720   -9.6640   29.7630 C   0  0  0  0  0  0  0  0  0  0  0  0
  -17.3250   -9.4490   29.7110 H   0  0  0  0  0  0  0  0  0  0  0  0
  -19.0600   -9.1280   29.1440 H   0  0  0  0  0  0  0  0  0  0  0  0
  -18.0130   -8.9130   29.0910 H   0  0  0  0  0  0  0  0  0  0  0  0
  1  2  2  0
  1  6  1  0
  2  3  1  0
  3  8  1  0
  3  4  2  0
  4  9  1  0
  5  4  1  0
  5 11  1  0
  6  5  2  0
  7  2  1  0
 10  6  1  0
 11 15  1  0
 12 11  1  0
 12 14  1  0
 13 12  2  0
 14 16  1  0
 17 14  1  0
 17 22  1  0
 18 17  2  0
 19 18  1  0
 19 20  2  0
 20 21  1  0
 21 22  2  0
 21 26  1  0
 22 23  1  0
 24 18  1  0
 25 20  1  0
 27 29  1  0
 27 19  1  0
 28 27  1  0
 30 27  1  0
 31  1  1  0
 32 33  2  0
 34 32  1  0
 34 35  1  0
 35 43  1  0
 36 35  2  0
 36 37  1  0
 37 38  2  0
 37 42  1  0
 38 39  1  0
 39 31  1  0
 39 40  2  0
 40 46  1  0
 41 40  1  0
 41 47  1  0
 42 41  2  0
 43 42  1  0
 43 48  1  0
 44 34  1  0
 45 38  1  0
 49 32  1  0
 50 49  1  0
 51 50  1  0
 52 50  1  0
 53 50  1  0
M  END
>  <minimizedAffinity>  (72) 
-10.1904039

$$$$

     RDKit          3D

 60 61  0  0  0  0  0  0  0  0999 V2000
  -10.3050  -16.1140   36.1720 C   0  0  0  0  0  0  0  0  0  0  0  0
   -9.4810  -16.7810   35.1110 C   0  0  0  0  0  0  0  0  0  0  0  0
   -9.7930  -16.5500   33.6630 C   0  0  0  0  0  0  0  0  0  0  0  0
  -10.9290  -15.6510   33.2750 C   0  0  0  0  0  0  0  0  0  0  0  0
  -11.7540  -14.9840   34.3350 C   0  0  0  0  0  0  0  0  0  0  0  0
  -11.4420  -15.2150   35.7840 C   0  0  0  0  0  0  0  0  0  0  0  0
   -8.6990  -17.4000   35.3780 H   0  0  0  0  0  0  0  0  0  0  0  0
   -9.2260  -17.0090   32.9330 H   0  0  0  0  0  0  0  0  0  0  0  0
  -11.1440  -15.4920   32.2780 H   0  0  0  0  0  0  0  0  0  0  0  0
  -12.0090  -14.7560   36.5140 H   0  0  0  0  0  0  0  0  0  0  0  0
  -12.8900  -14.0850   33.9470 N   0  0  0  0  0  0  0  0  0  0  0  0
  -14.3060  -14.5550   34.1070 C   0  0  0  0  0  0  0  0  0  0  0  0
  -14.5850  -15.9230   34.6550 O   0  0  0  0  0  0  0  0  0  0  0  0
  -12.7070  -13.1880   33.5880 H   0  0  0  0  0  0  0  0  0  0  0  0
  -15.4420  -13.6560   33.7190 C   0  0  0  0  0  0  0  0  0  0  0  0
  -15.1750  -12.4010   32.9430 C   0  0  0  0  0  0  0  0  0  0  0  0
  -16.3110  -11.5020   32.5550 C   0  0  0  0  0  0  0  0  0  0  0  0
  -17.7150  -11.8590   32.9430 C   0  0  0  0  0  0  0  0  0  0  0  0
  -17.9830  -13.1140   33.7200 C   0  0  0  0  0  0  0  0  0  0  0  0
  -16.8470  -14.0130   34.1080 C   0  0  0  0  0  0  0  0  0  0  0  0
  -14.2080  -12.1560   32.6750 H   0  0  0  0  0  0  0  0  0  0  0  0
  -16.1270  -10.6390   32.0200 H   0  0  0  0  0  0  0  0  0  0  0  0
  -18.9490  -13.3590   33.9870 H   0  0  0  0  0  0  0  0  0  0  0  0
  -17.0310  -14.8750   34.6420 H   0  0  0  0  0  0  0  0  0  0  0  0
  -18.8520  -10.9600   32.5550 N   0  0  0  0  0  0  0  0  0  0  0  0
  -19.0490  -10.5780   31.1180 C   0  0  0  0  0  0  0  0  0  0  0  0
  -18.3790  -10.9450   30.3690 H   0  0  0  0  0  0  0  0  0  0  0  0
  -19.8600   -9.9360   30.8410 H   0  0  0  0  0  0  0  0  0  0  0  0
  -19.1890  -10.3050   30.0930 H   0  0  0  0  0  0  0  0  0  0  0  0
  -19.7920  -10.4440   33.6040 C   0  0  0  0  0  0  0  0  0  0  0  0
  -20.6030   -9.8020   33.3270 H   0  0  0  0  0  0  0  0  0  0  0  0
  -19.6520  -10.7160   34.6290 H   0  0  0  0  0  0  0  0  0  0  0  0
  -20.4620  -10.0750   34.3520 H   0  0  0  0  0  0  0  0  0  0  0  0
   -9.9930  -16.3460   37.6210 O   0  0  0  0  0  0  0  0  0  0  0  0
  -15.0420  -17.0590   39.1770 N   0  0  0  0  0 15  0  0  0  0  0  0
  -15.6540  -16.8380   40.5290 C   0  0  0  0  0  2  0  0  0  0  0  0
  -14.5770  -16.3540   41.4540 N   0  0  0  0  0  2  0  0  0  0  0  0
  -13.2980  -16.2760   40.6740 C   0  0  0  0  0  0  0  0  0  0  0  0
  -11.9090  -15.8640   41.0620 C   0  0  0  0  0  3  0  0  0  0  0  0
  -10.8080  -15.8870   40.0450 N   0  0  0  0  0  0  0  0  0  0  0  0
  -11.0950  -16.3220   38.6380 C   0  0  0  0  0  0  0  0  0  0  0  0
  -12.4840  -16.7340   38.2500 C   0  0  0  0  0  3  0  0  0  0  0  0
  -13.5850  -16.7110   39.2670 C   0  0  0  0  0  3  0  0  0  0  0  0
  -11.7120  -15.5640   42.0300 H   0  0  0  0  0  0  0  0  0  0  0  0
  -12.6810  -17.0340   37.2820 H   0  0  0  0  0  0  0  0  0  0  0  0
  -17.0920  -17.0630   40.8920 C   0  0  0  0  0  0  0  0  0  0  0  0
  -18.1890  -16.0410   40.8230 N   0  0  0  0  0  0  0  0  0  0  0  0
  -19.4610  -16.6950   41.2760 O   0  0  0  0  0  0  0  0  0  0  0  0
  -19.1510  -18.1210   41.6250 N   0  0  0  0  0  0  0  0  0  0  0  0
  -17.6870  -18.3480   41.3880 C   0  0  0  0  0  0  0  0  0  0  0  0
  -16.9480  -19.6340   41.6080 N   0  0  0  0  0  0  0  0  0  0  0  0
  -15.9820  -19.6850   41.4230 H   0  0  0  0  0  0  0  0  0  0  0  0
  -17.4270  -20.4280   41.9380 H   0  0  0  0  0  0  0  0  0  0  0  0
  -15.7590  -17.5420   37.9520 C   0  0  0  0  0  3  0  0  0  0  0  0
  -15.6160  -18.5460   37.6090 H   0  0  0  0  0  0  0  0  0  0  0  0
  -15.1050  -18.2010   38.4840 H   0  0  0  0  0  0  0  0  0  0  0  0
  -16.6770  -16.6190   37.2070 C   0  0  0  0  0  0  0  0  0  0  0  0
  -16.8200  -15.6160   37.5500 H   0  0  0  0  0  0  0  0  0  0  0  0
  -17.1880  -16.9640   36.3330 H   0  0  0  0  0  0  0  0  0  0  0  0
  -17.3310  -15.9610   36.6750 H   0  0  0  0  0  0  0  0  0  0  0  0
  1 34  1  0
  2  7  1  0
  2  1  2  0
  3  2  1  0
  4  3  2  0
  4  5  1  0
  5  6  2  0
  6  1  1  0
  6 10  1  0
  8  3  1  0
  9  4  1  0
 11 12  1  0
 11  5  1  0
 12 13  2  0
 14 11  1  0
 15 12  1  0
 15 20  1  0
 16 15  2  0
 17 18  2  0
 17 16  1  0
 18 19  1  0
 19 23  1  0
 19 20  2  0
 20 24  1  0
 21 16  1  0
 22 17  1  0
 25 18  1  0
 25 30  1  0
 26 25  1  0
 27 26  1  0
 28 26  1  0
 29 26  1  0
 30 33  1  0
 30 32  1  0
 31 30  1  0
 34 41  1  0
 36 46  1  0
 36 37  1  0
 38 39  1  0
 38 37  1  0
 39 44  1  0
 40 39  1  0
 41 40  2  0
 42 41  1  0
 42 43  1  0
 43 38  2  0
 45 42  1  0
 46 50  1  0
 47 46  2  0
 47 48  1  0
 48 49  1  0
 50 51  1  0
 50 49  2  0
 51 53  1  0
 52 51  1  0
 54 56  1  0
 55 54  1  0
 57 58  1  0
 57 54  1  0
 59 57  1  0
 60 57  1  0
M  END
>  <minimizedAffinity>  (73) 
-9.14120293

$$$$

     RDKit          3D

 57 56  0  0  0  0  0  0  0  0999 V2000
  -13.7570  -14.1970   33.4390 C   0  0  0  0  0  0  0  0  0  0  0  0
  -15.0510  -14.3410   34.1850 C   0  0  0  0  0  0  0  0  0  0  0  0
  -16.2780  -13.6290   33.7000 C   0  0  0  0  0  0  0  0  0  0  0  0
  -16.2130  -12.7730   32.4700 C   0  0  0  0  0  0  0  0  0  0  0  0
  -14.9190  -12.6280   31.7250 C   0  0  0  0  0  0  0  0  0  0  0  0
  -13.6910  -13.3410   32.2090 C   0  0  0  0  0  0  0  0  0  0  0  0
  -15.0960  -14.9300   35.0300 H   0  0  0  0  0  0  0  0  0  0  0  0
  -17.1690  -13.7280   34.2130 H   0  0  0  0  0  0  0  0  0  0  0  0
  -14.8730  -12.0390   30.8790 H   0  0  0  0  0  0  0  0  0  0  0  0
  -12.8010  -13.2420   31.6970 H   0  0  0  0  0  0  0  0  0  0  0  0
  -11.1130  -15.8810   35.8730 C   0  0  0  0  0  0  0  0  0  0  0  0
  -10.0740  -16.3340   34.8920 C   0  0  0  0  0  0  0  0  0  0  0  0
  -10.2610  -16.0760   33.4260 C   0  0  0  0  0  0  0  0  0  0  0  0
  -11.4890  -15.3640   32.9420 N   0  0  0  0  0  0  0  0  0  0  0  0
  -12.5290  -14.9100   33.9240 C   0  0  0  0  0  0  0  0  0  0  0  0
  -12.3410  -15.1680   35.3890 C   0  0  0  0  0  0  0  0  0  0  0  0
   -9.2280  -16.8250   35.2260 H   0  0  0  0  0  0  0  0  0  0  0  0
   -9.5460  -16.3890   32.7520 H   0  0  0  0  0  0  0  0  0  0  0  0
  -13.0560  -14.8560   36.0640 H   0  0  0  0  0  0  0  0  0  0  0  0
  -12.0190  -16.3790   38.3380 C   0  0  0  0  0  0  0  0  0  0  0  0
  -11.3820  -16.5910   39.6800 N   0  0  0  0  0  0  0  0  0  0  0  0
   -9.8960  -16.4810   39.5100 N   0  0  0  0  0  0  0  0  0  0  0  0
   -9.6140  -16.2020   38.0630 C   0  0  0  0  0  0  0  0  0  0  0  0
  -10.9260  -16.1390   37.3390 C   0  0  0  0  0  0  0  0  0  0  0  0
   -9.2230  -16.5760   40.2230 H   0  0  0  0  0  0  0  0  0  0  0  0
   -8.6810  -16.0750   37.6400 H   0  0  0  0  0  0  0  0  0  0  0  0
  -16.4330  -16.4520   37.4650 C   0  0  0  0  0  0  0  0  0  0  0  0
  -15.6500  -17.7310   37.4790 C   0  0  0  0  0  0  0  0  0  0  0  0
  -14.1790  -17.7070   37.7700 C   0  0  0  0  0  0  0  0  0  0  0  0
  -13.4900  -16.4030   38.0470 C   0  0  0  0  0  0  0  0  0  0  0  0
  -14.2730  -15.1240   38.0330 N   0  0  0  0  0  0  0  0  0  0  0  0
  -15.7440  -15.1480   37.7420 C   0  0  0  0  0  0  0  0  0  0  0  0
  -17.4450  -16.4680   37.2650 H   0  0  0  0  0  0  0  0  0  0  0  0
  -16.1230  -18.6280   37.2890 H   0  0  0  0  0  0  0  0  0  0  0  0
  -13.6400  -18.5870   37.7800 H   0  0  0  0  0  0  0  0  0  0  0  0
  -16.2830  -14.2670   37.7320 H   0  0  0  0  0  0  0  0  0  0  0  0
  -17.4410  -12.0600   31.9860 O   0  0  0  0  0  0  0  0  0  0  0  0
  -18.7580  -12.7770   31.9460 C   0  0  0  0  0  0  0  0  0  0  0  0
  -18.9570  -13.4860   31.1690 H   0  0  0  0  0  0  0  0  0  0  0  0
  -19.6970  -13.2890   31.9170 H   0  0  0  0  0  0  0  0  0  0  0  0
  -19.7950  -12.5010   32.9940 C   0  0  0  0  0  0  0  0  0  0  0  0
  -20.6600  -11.9200   32.7490 H   0  0  0  0  0  0  0  0  0  0  0  0
  -20.5350  -12.3040   33.7410 H   0  0  0  0  0  0  0  0  0  0  0  0
  -19.6200  -13.0390   34.3820 N   0  0  0  0  0  1  0  0  0  0  0  0
  -19.7940  -14.5060   34.6460 C   0  0  0  0  0  2  0  0  0  0  0  0
  -19.6200  -15.0440   36.0350 C   0  0  0  0  0  2  0  0  0  0  0  0
  -19.2710  -14.1150   37.1600 O   0  0  0  0  0  1  0  0  0  0  0  0
  -19.0970  -12.6490   36.8970 C   0  0  0  0  0  3  0  0  0  0  0  0
  -19.2720  -12.1120   35.5080 C   0  0  0  0  0  2  0  0  0  0  0  0
  -20.0430  -15.1670   33.8430 H   0  0  0  0  0  0  0  0  0  0  0  0
  -19.9180  -15.5520   34.8330 H   0  0  0  0  0  0  0  0  0  0  0  0
  -19.7440  -16.0900   36.2230 H   0  0  0  0  0  0  0  0  0  0  0  0
  -19.4950  -15.4280   37.0260 H   0  0  0  0  0  0  0  0  0  0  0  0
  -18.8490  -11.9870   37.7000 H   0  0  0  0  0  0  0  0  0  0  0  0
  -18.9730  -11.6030   36.7090 H   0  0  0  0  0  0  0  0  0  0  0  0
  -19.1480  -11.0650   35.3200 H   0  0  0  0  0  0  0  0  0  0  0  0
  -19.3960  -11.7270   34.5170 H   0  0  0  0  0  0  0  0  0  0  0  0
  1 15  1  0
  1  2  1  0
  2  7  1  0
  3  2  2  0
  3  8  1  0
  4  3  1  0
  5  6  1  0
  5  4  2  0
  6  1  2  0
  9  5  1  0
 10  6  1  0
 11 24  1  0
 12 17  1  0
 12 11  2  0
 13 12  1  0
 14 13  2  0
 14 15  1  0
 15 16  2  0
 16 11  1  0
 16 19  1  0
 18 13  1  0
 20 21  2  0
 22 21  1  0
 22 25  1  0
 23 22  1  0
 24 23  2  0
 24 20  1  0
 26 23  1  0
 27 28  2  0
 27 32  1  0
 28 29  1  0
 29 35  1  0
 29 30  2  0
 30 20  1  0
 31 30  1  0
 32 31  2  0
 33 27  1  0
 34 28  1  0
 36 32  1  0
 37  4  1  0
 38 37  1  0
 38 41  1  0
 39 38  1  0
 40 38  1  0
 41 43  1  0
 41 44  1  0
 42 41  1  0
 45 51  1  0
 46 52  1  0
 46 53  1  0
 48 47  1  0
 48 54  1  0
 50 45  1  0
 55 48  1  0
 56 49  1  0
 57 49  1  0
M  END
>  <minimizedAffinity>  (74) 
-9.25813961

$$$$

     RDKit          3D

 57 56  0  0  0  0  0  0  0  0999 V2000
  -11.2330  -16.3280   36.4620 C   0  0  0  0  0  0  0  0  0  0  0  0
  -11.7390  -15.7610   35.1690 C   0  0  0  0  0  0  0  0  0  0  0  0
  -10.6090  -15.7720   34.1840 N   0  0  0  0  0  0  0  0  0  0  0  0
   -9.4040  -16.3470   34.8680 C   0  0  0  0  0  0  0  0  0  0  0  0
   -9.7890  -16.6910   36.2750 N   0  0  0  0  0  0  0  0  0  0  0  0
   -8.4720  -16.4820   34.4440 H   0  0  0  0  0  0  0  0  0  0  0  0
   -8.8900  -17.2910   37.3150 C   0  0  0  0  0  2  0  0  0  0  0  0
   -7.9770  -16.4120   38.1160 C   0  0  0  0  0  2  0  0  0  0  0  0
   -7.0780  -17.0130   39.1560 C   0  0  0  0  0  2  0  0  0  0  0  0
   -7.0920  -18.4940   39.3930 N   0  0  0  0  0  0  0  0  0  0  0  0
   -8.0040  -19.3740   38.5920 C   0  0  0  0  0  0  0  0  0  0  0  0
   -8.9040  -18.7730   37.5520 C   0  0  0  0  0  2  0  0  0  0  0  0
   -8.2490  -17.7210   38.0560 H   0  0  0  0  0  0  0  0  0  0  0  0
   -7.9670  -15.3560   37.9470 H   0  0  0  0  0  0  0  0  0  0  0  0
   -7.3250  -15.7850   38.6890 H   0  0  0  0  0  0  0  0  0  0  0  0
   -6.4270  -16.3860   39.7280 H   0  0  0  0  0  0  0  0  0  0  0  0
   -6.4370  -17.4430   39.8970 H   0  0  0  0  0  0  0  0  0  0  0  0
   -6.4810  -18.9030   40.0990 H   0  0  0  0  0  0  0  0  0  0  0  0
   -8.0140  -20.4310   38.7610 H   0  0  0  0  0  0  0  0  0  0  0  0
   -8.6560  -20.0020   38.0190 H   0  0  0  0  0  0  0  0  0  0  0  0
   -9.5540  -19.4000   36.9800 H   0  0  0  0  0  0  0  0  0  0  0  0
   -9.5450  -18.3430   36.8110 H   0  0  0  0  0  0  0  0  0  0  0  0
  -13.1320  -15.2680   34.9080 C   0  0  0  0  0  0  0  0  0  0  0  0
  -14.3070  -16.0060   35.4780 C   0  0  0  0  0  0  0  0  0  0  0  0
  -15.6990  -15.5140   35.2170 C   0  0  0  0  0  0  0  0  0  0  0  0
  -15.9170  -14.2830   34.3870 C   0  0  0  0  0  0  0  0  0  0  0  0
  -17.3100  -13.7910   34.1270 F   0  0  0  0  0  0  0  0  0  0  0  0
  -14.7410  -13.5450   33.8180 C   0  0  0  0  0  0  0  0  0  0  0  0
  -13.3490  -14.0380   34.0790 C   0  0  0  0  0  0  0  0  0  0  0  0
  -14.1570  -16.8520   36.0480 H   0  0  0  0  0  0  0  0  0  0  0  0
  -16.5080  -16.0220   35.6090 H   0  0  0  0  0  0  0  0  0  0  0  0
  -14.8910  -12.6990   33.2470 H   0  0  0  0  0  0  0  0  0  0  0  0
  -12.5410  -13.5290   33.6870 H   0  0  0  0  0  0  0  0  0  0  0  0
  -14.1670  -17.3520   38.9310 C   0  0  0  0  0  0  0  0  0  0  0  0
  -13.6250  -16.8540   40.2380 N   0  0  0  0  0  0  0  0  0  0  0  0
  -12.2850  -16.1810   40.2860 C   0  0  0  0  0  3  0  0  0  0  0  0
  -11.4880  -16.0060   39.0270 C   0  0  0  0  0  0  0  0  0  0  0  0
  -12.0300  -16.5040   37.7210 C   0  0  0  0  0  0  0  0  0  0  0  0
  -13.3700  -17.1770   37.6720 N   0  0  0  0  0  0  0  0  0  0  0  0
  -11.9120  -15.8380   41.1850 H   0  0  0  0  0  0  0  0  0  0  0  0
  -10.5660  -15.5420   39.0610 H   0  0  0  0  0  0  0  0  0  0  0  0
  -15.5070  -18.0250   38.8820 O   0  0  0  0  0  0  0  0  0  0  0  0
  -17.3200  -17.0470   40.4650 C   0  0  0  0  0  0  0  0  0  0  0  0
  -18.5710  -16.2440   40.6690 C   0  0  0  0  0  0  0  0  0  0  0  0
  -19.2580  -15.6160   39.4930 C   0  0  0  0  0  0  0  0  0  0  0  0
  -18.6950  -15.7900   38.1130 C   0  0  0  0  0  0  0  0  0  0  0  0
  -17.4450  -16.5930   37.9100 C   0  0  0  0  0  0  0  0  0  0  0  0
  -16.7570  -17.2220   39.0860 C   0  0  0  0  0  0  0  0  0  0  0  0
  -18.9580  -16.1240   41.6180 H   0  0  0  0  0  0  0  0  0  0  0  0
  -20.1190  -15.0630   39.6330 H   0  0  0  0  0  0  0  0  0  0  0  0
  -19.1680  -15.3580   37.3040 H   0  0  0  0  0  0  0  0  0  0  0  0
  -17.0570  -16.7130   36.9610 H   0  0  0  0  0  0  0  0  0  0  0  0
  -16.6330  -17.6760   41.6410 O   0  0  0  0  0  0  0  0  0  0  0  0
  -16.8970  -19.1120   41.9850 C   0  0  0  0  0  0  0  0  0  0  0  0
  -17.5760  -19.6880   41.3910 H   0  0  0  0  0  0  0  0  0  0  0  0
  -16.4070  -19.5600   42.8230 H   0  0  0  0  0  0  0  0  0  0  0  0
  -17.0860  -20.1360   42.2300 H   0  0  0  0  0  0  0  0  0  0  0  0
  1 38  1  0
  2  1  2  0
  3  4  2  0
  3  2  1  0
  4  5  1  0
  5  1  1  0
  5  7  1  0
  6  4  1  0
  7 13  1  0
  8 15  1  0
  9 16  1  0
  9 17  1  0
 10 18  1  0
 11 19  1  0
 11 10  2  0
 14  8  1  0
 20 11  1  0
 21 12  1  0
 22 12  1  0
 23  2  1  0
 23 24  1  0
 24 30  1  0
 25 24  2  0
 25 31  1  0
 26 25  1  0
 27 26  1  0
 28 29  1  0
 28 26  2  0
 29 23  2  0
 32 28  1  0
 33 29  1  0
 34 35  2  0
 35 36  1  0
 36 40  1  0
 37 41  1  0
 37 36  1  0
 38 37  2  0
 39 38  1  0
 39 34  2  0
 42 34  1  0
 42 48  1  0
 43 44  1  0
 43 53  1  0
 44 49  1  0
 45 50  1  0
 45 44  2  0
 46 45  1  0
 47 46  2  0
 47 48  1  0
 48 43  2  0
 51 46  1  0
 52 47  1  0
 53 54  1  0
 54 57  1  0
 54 56  1  0
 55 54  1  0
M  END
>  <minimizedAffinity>  (75) 
-9.29097939

$$$$

     RDKit          3D

 51 54  0  0  0  0  0  0  0  0999 V2000
  -12.7160  -15.2480   35.2790 C   0  0  0  0  0  0  0  0  0  0  0  0
  -11.8230  -15.0340   34.0930 C   0  0  0  0  0  0  0  0  0  0  0  0
  -12.3220  -14.2600   32.9090 C   0  0  0  0  0  0  0  0  0  0  0  0
  -13.7140  -13.7010   32.9110 N   0  0  0  0  0  0  0  0  0  0  0  0
  -14.6060  -13.9150   34.0970 C   0  0  0  0  0  0  0  0  0  0  0  0
  -15.9980  -13.3550   34.0990 N   0  0  0  0  0  0  0  0  0  0  0  0
  -14.1070  -14.6880   35.2810 N   0  0  0  0  0  0  0  0  0  0  0  0
  -10.8650  -15.4190   34.0920 H   0  0  0  0  0  0  0  0  0  0  0  0
  -11.7080  -14.1130   32.0920 H   0  0  0  0  0  0  0  0  0  0  0  0
  -16.5840  -13.4960   34.8770 H   0  0  0  0  0  0  0  0  0  0  0  0
  -16.4970  -12.5820   32.9150 C   0  0  0  0  0  0  0  0  0  0  0  0
  -16.1800  -11.1220   32.7850 C   0  0  0  0  0  0  0  0  0  0  0  0
  -16.6790  -10.3480   31.6010 C   0  0  0  0  0  0  0  0  0  0  0  0
  -17.4950  -11.0350   30.5460 C   0  0  0  0  0  0  0  0  0  0  0  0
  -17.8130  -12.4950   30.6760 C   0  0  0  0  0  0  0  0  0  0  0  0
  -17.3140  -13.2680   31.8610 C   0  0  0  0  0  0  0  0  0  0  0  0
  -15.6180  -10.6490   33.5100 H   0  0  0  0  0  0  0  0  0  0  0  0
  -16.4600   -9.3430   31.5110 H   0  0  0  0  0  0  0  0  0  0  0  0
  -17.8390  -10.5020   29.7310 H   0  0  0  0  0  0  0  0  0  0  0  0
  -17.5330  -14.2730   31.9500 H   0  0  0  0  0  0  0  0  0  0  0  0
  -18.6300  -13.1820   29.6220 S   0  0  2  0  0  0  0  0  0  0  0  0
  -19.3810  -13.9240   30.6880 O   0  0  0  0  0  0  0  0  0  0  0  0
  -17.8790  -12.4390   28.5570 O   0  0  0  0  0  0  0  0  0  0  0  0
  -19.4470  -13.8680   28.5680 N   0  0  0  0  0  0  0  0  0  0  0  0
  -20.1670  -14.5390   28.8370 H   0  0  0  0  0  0  0  0  0  0  0  0
  -19.2820  -13.6650   27.5820 H   0  0  0  0  0  0  0  0  0  0  0  0
  -12.2160  -16.0210   36.4640 N   0  0  0  0  0  0  0  0  0  0  0  0
  -15.8990  -17.4630   40.9430 C   0  0  0  0  0  0  0  0  0  0  0  0
  -15.4520  -16.4450   41.9500 N   0  0  0  0  0  0  0  0  0  0  0  0
  -14.3570  -15.6290   41.3310 N   0  0  0  0  0  0  0  0  0  0  0  0
  -14.1270  -16.1420   39.9400 C   0  0  0  0  0  0  0  0  0  0  0  0
  -13.1720  -15.7240   38.8610 C   0  0  0  0  0  0  0  0  0  0  0  0
  -13.1710  -16.4390   37.5430 C   0  0  0  0  0  0  0  0  0  0  0  0
  -14.1240  -17.5730   37.3030 C   0  0  0  0  0  0  0  0  0  0  0  0
  -15.0780  -17.9910   38.3820 C   0  0  0  0  0  0  0  0  0  0  0  0
  -15.0800  -17.2760   39.7010 C   0  0  0  0  0  0  0  0  0  0  0  0
  -12.5170  -14.9440   39.0260 H   0  0  0  0  0  0  0  0  0  0  0  0
  -14.1230  -18.0650   36.3960 H   0  0  0  0  0  0  0  0  0  0  0  0
  -15.7340  -18.7710   38.2170 H   0  0  0  0  0  0  0  0  0  0  0  0
  -16.9760  -18.4880   41.1430 C   0  0  0  0  0  0  0  0  0  0  0  0
  -17.2170  -19.1700   40.3550 H   0  0  0  0  0  0  0  0  0  0  0  0
  -17.5020  -18.5370   42.0730 H   0  0  0  0  0  0  0  0  0  0  0  0
  -17.7440  -19.2190   41.2860 H   0  0  0  0  0  0  0  0  0  0  0  0
  -13.6210  -14.4980   41.9860 C   0  0  0  0  0  0  0  0  0  0  0  0
  -13.8650  -14.2100   42.9880 H   0  0  0  0  0  0  0  0  0  0  0  0
  -12.8530  -13.9790   41.4520 H   0  0  0  0  0  0  0  0  0  0  0  0
  -13.0970  -13.6910   42.4540 H   0  0  0  0  0  0  0  0  0  0  0  0
  -10.7630  -16.3770   36.5690 C   0  0  0  0  0  0  0  0  0  0  0  0
  -10.4070  -16.9290   37.4140 H   0  0  0  0  0  0  0  0  0  0  0  0
  -10.0820  -16.0780   35.7990 H   0  0  0  0  0  0  0  0  0  0  0  0
   -9.7260  -16.6300   36.6440 H   0  0  0  0  0  0  0  0  0  0  0  0
  1  7  2  0
  1 27  1  0
  2  1  1  0
  3  4  1  0
  3  2  2  0
  4  5  2  0
  5  6  1  0
  5  7  1  0
  6 10  1  0
  8  2  1  0
  9  3  1  0
 11  6  1  0
 12 11  1  0
 12 17  1  0
 13 12  2  0
 14 15  2  0
 14 13  1  0
 15 16  1  0
 16 20  1  0
 16 11  2  0
 18 13  1  0
 19 14  1  0
 21 15  1  0
 21 22  2  0
 23 21  2  0
 24 25  1  0
 24 21  1  0
 26 24  1  0
 27 48  1  0
 27 33  1  0
 28 40  1  0
 28 29  2  0
 30 29  1  0
 30 44  1  0
 31 30  1  0
 32 37  1  0
 32 31  2  0
 33 32  1  0
 34 33  2  0
 34 35  1  0
 35 36  2  0
 36 31  1  0
 36 28  1  0
 38 34  1  0
 39 35  1  0
 40 43  1  0
 40 42  1  0
 41 40  1  0
 44 47  1  0
 44 45  1  0
 46 44  1  0
 48 51  1  0
 48 49  1  0
 50 48  1  0
M  END
>  <minimizedAffinity>  (76) 
-8.62790298

$$$$

     RDKit          3D

 75 75  0  0  0  0  0  0  0  0999 V2000
  -14.7540  -15.7300   40.0100 C   0  0  0  0  0  0  0  0  0  0  0  0
  -15.6600  -16.0840   41.1520 C   0  0  0  0  0  0  0  0  0  0  0  0
  -17.1460  -16.1150   40.9490 C   0  0  0  0  0  0  0  0  0  0  0  0
  -17.7260  -15.7930   39.6040 C   0  0  0  0  0  0  0  0  0  0  0  0
  -19.2120  -15.8240   39.4010 N   0  0  0  0  0  0  0  0  0  0  0  0
  -19.7920  -15.5020   38.0560 C   0  0  0  0  0  0  0  0  0  0  0  0
  -18.8870  -15.1480   36.9140 N   0  0  0  0  0  0  0  0  0  0  0  0
  -17.4010  -15.1160   37.1170 C   0  0  0  0  0  0  0  0  0  0  0  0
  -16.4950  -14.7630   35.9750 N   0  0  0  0  0  0  0  0  0  0  0  0
  -16.8200  -15.4390   38.4620 C   0  0  0  0  0  0  0  0  0  0  0  0
  -15.3350  -15.4080   38.6650 C   0  0  0  0  0  0  0  0  0  0  0  0
  -15.2610  -16.3060   42.0780 H   0  0  0  0  0  0  0  0  0  0  0  0
  -17.7690  -16.3590   41.7350 H   0  0  0  0  0  0  0  0  0  0  0  0
  -20.8150  -15.5230   37.9170 H   0  0  0  0  0  0  0  0  0  0  0  0
  -15.5200  -14.7420   36.1080 H   0  0  0  0  0  0  0  0  0  0  0  0
  -14.7110  -15.1640   37.8790 H   0  0  0  0  0  0  0  0  0  0  0  0
  -17.0750  -14.4400   34.6300 C   0  0  0  0  0  0  0  0  0  0  0  0
  -18.4870  -14.8320   34.3080 C   0  0  0  0  0  0  0  0  0  0  0  0
  -19.0680  -14.5090   32.9630 C   0  0  0  0  0  0  0  0  0  0  0  0
  -18.2360  -13.7950   31.9400 C   0  0  0  0  0  0  0  0  0  0  0  0
  -16.8240  -13.4030   32.2610 C   0  0  0  0  0  0  0  0  0  0  0  0
  -15.9930  -12.6890   31.2370 Cl  0  0  0  0  0  0  0  0  0  0  0  0
  -16.2440  -13.7260   33.6060 C   0  0  0  0  0  0  0  0  0  0  0  0
  -19.0600  -15.3240   35.0130 H   0  0  0  0  0  0  0  0  0  0  0  0
  -20.0390  -14.7790   32.7420 H   0  0  0  0  0  0  0  0  0  0  0  0
  -15.2720  -13.4560   33.8270 H   0  0  0  0  0  0  0  0  0  0  0  0
  -18.8160  -13.4720   30.5940 O   0  0  0  0  0  0  0  0  0  0  0  0
  -19.3950  -12.1130   30.3340 C   0  0  0  0  0  0  0  0  0  0  0  0
  -20.1940  -11.7460   30.9440 H   0  0  0  0  0  0  0  0  0  0  0  0
  -19.8080  -11.1440   30.1480 H   0  0  0  0  0  0  0  0  0  0  0  0
  -18.8550  -11.2690   29.2180 C   0  0  0  0  0  0  0  0  0  0  0  0
  -19.7940  -10.5100   28.3280 C   0  0  0  0  0  0  0  0  0  0  0  0
  -19.2530   -9.6660   27.2130 C   0  0  0  0  0  0  0  0  0  0  0  0
  -17.7730   -9.5810   26.9860 C   0  0  0  0  0  0  0  0  0  0  0  0
  -16.8330  -10.3400   27.8760 C   0  0  0  0  0  0  0  0  0  0  0  0
  -15.3530  -10.2550   27.6490 F   0  0  0  0  0  0  0  0  0  0  0  0
  -17.3740  -11.1840   28.9910 C   0  0  0  0  0  0  0  0  0  0  0  0
  -20.8130  -10.5690   28.4840 H   0  0  0  0  0  0  0  0  0  0  0  0
  -19.9000   -9.1440   26.6010 H   0  0  0  0  0  0  0  0  0  0  0  0
  -17.4010   -9.0000   26.2180 H   0  0  0  0  0  0  0  0  0  0  0  0
  -16.7270  -11.7060   29.6030 H   0  0  0  0  0  0  0  0  0  0  0  0
  -10.8800  -15.8790   39.8180 C   0  0  0  0  0  1  0  0  0  0  0  0
  -11.0830  -15.4220   41.2320 C   0  0  0  0  0  3  0  0  0  0  0  0
  -12.5590  -15.3100   41.4760 C   0  0  0  0  0  0  0  0  0  0  0  0
  -13.2680  -15.6990   40.2130 C   0  0  0  0  0  0  0  0  0  0  0  0
  -12.2310  -16.0500   39.1880 O   0  0  0  0  0  1  0  0  0  0  0  0
  -10.3380  -15.2200   41.9160 H   0  0  0  0  0  0  0  0  0  0  0  0
  -13.0080  -15.0180   42.3580 H   0  0  0  0  0  0  0  0  0  0  0  0
   -9.5590  -16.1230   39.1510 C   0  0  0  0  0  3  0  0  0  0  0  0
   -8.6510  -15.8440   39.6430 H   0  0  0  0  0  0  0  0  0  0  0  0
   -9.5940  -15.6700   40.1190 H   0  0  0  0  0  0  0  0  0  0  0  0
   -9.5110  -16.7570   37.7920 N   0  0  0  0  0  2  0  0  0  0  0  0
   -9.1430  -18.2050   37.6540 C   0  0  0  0  0  2  0  0  0  0  0  0
   -9.9060  -18.9400   37.5090 H   0  0  0  0  0  0  0  0  0  0  0  0
  -10.1690  -17.9080   37.6070 H   0  0  0  0  0  0  0  0  0  0  0  0
   -7.7020  -18.6220   37.7200 C   0  0  0  0  0  3  0  0  0  0  0  0
   -7.0850  -18.5510   36.8500 H   0  0  0  0  0  0  0  0  0  0  0  0
   -8.1120  -18.2540   36.8020 H   0  0  0  0  0  0  0  0  0  0  0  0
   -7.1300  -19.1360   39.0080 C   0  0  0  0  0  0  0  0  0  0  0  0
   -6.1020  -19.4330   39.0550 H   0  0  0  0  0  0  0  0  0  0  0  0
   -7.7470  -19.2060   39.8780 H   0  0  0  0  0  0  0  0  0  0  0  0
   -6.7210  -19.5030   39.9260 H   0  0  0  0  0  0  0  0  0  0  0  0
   -9.8300  -15.9440   36.5730 C   0  0  0  0  0  0  0  0  0  0  0  0
   -9.0620  -15.3730   36.0940 H   0  0  0  0  0  0  0  0  0  0  0  0
  -10.0590  -15.3640   35.7030 H   0  0  0  0  0  0  0  0  0  0  0  0
  -11.2260  -15.9320   36.0250 C   0  0  0  0  0  0  0  0  0  0  0  0
  -12.0020  -16.4770   36.5230 H   0  0  0  0  0  0  0  0  0  0  0  0
  -12.2230  -15.9230   35.6340 H   0  0  0  0  0  0  0  0  0  0  0  0
  -11.5370  -15.1570   34.7790 S   0  0  1  0  0  0  0  0  0  0  0  0
  -10.6390  -16.0650   33.9910 O   0  0  0  0  0  0  0  0  0  0  0  0
  -12.4340  -14.2480   35.5660 O   0  0  0  0  0  0  0  0  0  0  0  0
  -11.8470  -14.3820   33.5330 C   0  0  0  0  0  0  0  0  0  0  0  0
  -11.4030  -14.6660   32.6010 H   0  0  0  0  0  0  0  0  0  0  0  0
  -12.5120  -13.5450   33.5750 H   0  0  0  0  0  0  0  0  0  0  0  0
  -12.0680  -13.8290   32.6440 H   0  0  0  0  0  0  0  0  0  0  0  0
  1 45  1  0
  1  2  1  0
  2 12  1  0
  3  2  2  0
  3 13  1  0
  4  3  1  0
  5  4  1  0
  6  5  2  0
  7  8  2  0
  7  6  1  0
  8 10  1  0
  9 15  1  0
  9  8  1  0
 10 11  1  0
 10  4  2  0
 11  1  2  0
 14  6  1  0
 16 11  1  0
 17  9  1  0
 18 17  1  0
 18 24  1  0
 19 18  2  0
 20 21  2  0
 20 19  1  0
 21 23  1  0
 22 21  1  0
 23 26  1  0
 23 17  2  0
 25 19  1  0
 27 20  1  0
 28 27  1  0
 28 29  1  0
 30 28  1  0
 31 28  1  0
 32 38  1  0
 32 31  2  0
 33 32  1  0
 34 33  2  0
 34 35  1  0
 35 37  2  0
 36 35  1  0
 37 31  1  0
 37 41  1  0
 39 33  1  0
 40 34  1  0
 42 43  1  0
 43 44  1  0
 43 47  1  0
 44 48  1  0
 45 44  2  0
 46 45  1  0
 49 50  1  0
 49 51  1  0
 52 49  1  0
 54 53  1  0
 55 53  1  0
 56 59  1  0
 57 56  1  0
 58 56  1  0
 59 60  1  0
 59 61  1  0
 59 62  1  0
 63 52  1  0
 64 63  1  0
 65 63  1  0
 66 67  1  0
 66 63  1  0
 68 66  1  0
 69 71  2  0
 69 66  1  0
 70 69  2  0
 72 74  1  0
 72 69  1  0
 73 72  1  0
 75 72  1  0
M  END
>  <minimizedAffinity>  (77) 
-9.91389751

$$$$

     RDKit          3D

 55 58  0  0  0  0  0  0  0  0999 V2000
  -10.2850  -14.8050   32.8960 C   0  0  0  0  0  0  0  0  0  0  0  0
  -11.0290  -16.0100   33.3900 C   0  0  0  0  0  0  0  0  0  0  0  0
  -10.3240  -17.0350   34.2280 C   0  0  0  0  0  0  0  0  0  0  0  0
   -8.8750  -16.8550   34.5710 C   0  0  0  0  0  0  0  0  0  0  0  0
   -8.1310  -15.6500   34.0770 C   0  0  0  0  0  0  0  0  0  0  0  0
   -8.8360  -14.6250   33.2390 C   0  0  0  0  0  0  0  0  0  0  0  0
  -12.0260  -16.1330   33.1540 H   0  0  0  0  0  0  0  0  0  0  0  0
  -10.8360  -17.8640   34.5680 H   0  0  0  0  0  0  0  0  0  0  0  0
   -7.1340  -15.5260   34.3130 H   0  0  0  0  0  0  0  0  0  0  0  0
   -8.3240  -13.7960   32.8990 H   0  0  0  0  0  0  0  0  0  0  0  0
   -8.1700  -17.8800   35.4090 N   0  0  0  0  0  0  0  0  0  0  0  0
   -8.7670  -18.3240   36.7120 C   0  0  0  0  0  0  0  0  0  0  0  0
  -10.0690  -17.7430   37.1760 O   0  0  0  0  0  0  0  0  0  0  0  0
   -8.0620  -19.3490   37.5490 N   0  0  0  0  0  0  0  0  0  0  0  0
   -7.3150  -18.2620   35.1040 H   0  0  0  0  0  0  0  0  0  0  0  0
   -7.2080  -19.7310   37.2450 H   0  0  0  0  0  0  0  0  0  0  0  0
   -8.6590  -19.7930   38.8520 C   0  0  0  0  0  0  0  0  0  0  0  0
  -10.1370  -19.6700   39.0800 C   0  0  0  0  0  0  0  0  0  0  0  0
  -10.7340  -20.1140   40.3820 C   0  0  0  0  0  0  0  0  0  0  0  0
   -9.8540  -20.6810   41.4560 C   0  0  0  0  0  0  0  0  0  0  0  0
   -8.3770  -20.8040   41.2280 C   0  0  0  0  0  0  0  0  0  0  0  0
   -7.7790  -20.3600   39.9260 C   0  0  0  0  0  0  0  0  0  0  0  0
   -6.3020  -20.4830   39.6980 F   0  0  0  0  0  0  0  0  0  0  0  0
  -10.7420  -19.2800   38.3420 H   0  0  0  0  0  0  0  0  0  0  0  0
  -10.2650  -20.9860   42.3530 H   0  0  0  0  0  0  0  0  0  0  0  0
   -7.7710  -21.1940   41.9670 H   0  0  0  0  0  0  0  0  0  0  0  0
  -12.2120  -19.9900   40.6100 C   0  0  0  0  0  0  0  0  0  0  0  0
  -13.6890  -19.8670   40.8390 F   0  0  0  0  0  0  0  0  0  0  0  0
  -11.9530  -19.1710   41.8400 F   0  0  0  0  0  0  0  0  0  0  0  0
  -12.4700  -20.8100   39.3810 F   0  0  0  0  0  0  0  0  0  0  0  0
  -10.9900  -13.7800   32.0580 S   0  0  1  0  0  0  0  0  0  0  0  0
   -9.6660  -13.2480   31.5950 O   0  0  0  0  0  0  0  0  0  0  0  0
  -12.3140  -14.3120   32.5210 O   0  0  0  0  0  0  0  0  0  0  0  0
  -18.0560  -10.2420   29.0430 C   0  0  0  0  0  0  0  0  0  0  0  0
  -18.1070  -11.4140   29.9780 O   0  0  0  0  0  0  0  0  0  0  0  0
  -16.7320   -9.6740   28.6250 N   0  0  0  0  0  0  0  0  0  0  0  0
  -15.4600  -10.2780   29.1410 C   0  0  0  0  0  0  0  0  0  0  0  0
  -14.0700   -9.8190   28.8120 N   0  0  0  0  0  0  0  0  0  0  0  0
  -13.1050  -10.7040   29.5450 C   0  0  0  0  0  0  0  0  0  0  0  0
  -11.6060  -10.7250   29.6010 C   0  0  0  0  0  0  0  0  0  0  0  0
  -10.9010  -11.7500   30.4390 C   0  0  0  0  0  0  0  0  0  0  0  0
  -11.6950  -12.7540   31.2200 C   0  0  0  0  0  0  0  0  0  0  0  0
  -13.1940  -12.7340   31.1640 C   0  0  0  0  0  0  0  0  0  0  0  0
  -13.8990  -11.7090   30.3260 C   0  0  0  0  0  0  0  0  0  0  0  0
  -15.3550  -11.4460   30.0770 N   0  0  0  0  0  0  0  0  0  0  0  0
  -16.6990   -8.9040   28.0110 H   0  0  0  0  0  0  0  0  0  0  0  0
  -11.0600  -10.0330   29.0640 H   0  0  0  0  0  0  0  0  0  0  0  0
   -9.8700  -11.7640   30.4780 H   0  0  0  0  0  0  0  0  0  0  0  0
  -13.7400  -13.4250   31.7010 H   0  0  0  0  0  0  0  0  0  0  0  0
  -16.1080  -11.9500   30.4590 H   0  0  0  0  0  0  0  0  0  0  0  0
  -19.3280   -9.6390   28.5270 O   0  0  0  0  0  0  0  0  0  0  0  0
  -19.6930   -9.7830   27.0790 C   0  0  0  0  0  0  0  0  0  0  0  0
  -19.0460  -10.3160   26.4140 H   0  0  0  0  0  0  0  0  0  0  0  0
  -20.6010   -9.3520   26.7110 H   0  0  0  0  0  0  0  0  0  0  0  0
  -19.9540   -9.8860   26.0460 H   0  0  0  0  0  0  0  0  0  0  0  0
  1  6  2  0
  1  2  1  0
  2  3  2  0
  3  8  1  0
  3  4  1  0
  4 11  1  0
  5  9  1  0
  5  4  2  0
  6  5  1  0
  7  2  1  0
 10  6  1  0
 11 12  1  0
 12 13  2  0
 12 14  1  0
 14 17  1  0
 15 11  1  0
 16 14  1  0
 17 18  2  0
 17 22  1  0
 18 19  1  0
 19 27  1  0
 19 20  2  0
 20 25  1  0
 21 20  1  0
 21 26  1  0
 22 21  2  0
 23 22  1  0
 24 18  1  0
 27 28  1  0
 27 29  1  0
 30 27  1  0
 31 33  2  0
 31  1  1  0
 32 31  2  0
 34 35  2  0
 36 34  1  0
 36 37  1  0
 37 45  1  0
 38 37  2  0
 38 39  1  0
 39 40  2  0
 39 44  1  0
 40 41  1  0
 41 48  1  0
 41 42  2  0
 42 31  1  0
 43 42  1  0
 43 49  1  0
 44 43  2  0
 45 44  1  0
 45 50  1  0
 46 36  1  0
 47 40  1  0
 51 34  1  0
 52 51  1  0
 53 52  1  0
 54 52  1  0
 55 52  1  0
M  END
>  <minimizedAffinity>  (78) 
149.830841

$$$$

     RDKit          3D

 34 32  0  0  0  0  0  0  0  0999 V2000
  -13.4760  -15.7370   36.2540 C   0  0  0  0  0  0  0  0  0  0  0  0
  -11.9860  -15.6070   36.1380 C   0  0  0  0  0  0  0  0  0  0  0  0
  -11.6840  -14.7740   34.9280 S   0  0  0  0  0  0  0  0  0  0  0  0
  -12.9880  -14.3880   34.2950 C   0  0  0  0  0  3  0  0  0  0  0  0
  -14.0950  -14.9830   35.1140 C   0  0  0  0  0  0  0  0  0  0  0  0
  -15.5240  -14.7610   34.7160 C   0  0  0  0  0  3  0  0  0  0  0  0
  -15.8460  -13.9450   33.4990 C   0  0  0  0  0  2  0  0  0  0  0  0
  -14.7390  -13.3510   32.6800 C   0  0  0  0  0  2  0  0  0  0  0  0
  -13.3100  -13.5720   33.0780 C   0  0  0  0  0  2  0  0  0  0  0  0
  -16.3140  -15.1850   35.3000 H   0  0  0  0  0  0  0  0  0  0  0  0
  -16.5440  -14.6030   34.4320 H   0  0  0  0  0  0  0  0  0  0  0  0
  -16.8660  -13.7870   33.2150 H   0  0  0  0  0  0  0  0  0  0  0  0
  -16.0760  -13.3630   32.6310 H   0  0  0  0  0  0  0  0  0  0  0  0
  -14.9690  -12.7680   31.8120 H   0  0  0  0  0  0  0  0  0  0  0  0
  -13.9490  -12.9260   32.0960 H   0  0  0  0  0  0  0  0  0  0  0  0
  -12.5200  -13.1480   32.4940 H   0  0  0  0  0  0  0  0  0  0  0  0
  -12.2900  -13.7300   33.3620 H   0  0  0  0  0  0  0  0  0  0  0  0
  -10.9750  -16.2070   37.0700 N   0  0  0  0  0  0  0  0  0  0  0  0
   -9.6790  -16.7360   36.5310 C   0  0  0  0  0  0  0  0  0  0  0  0
   -9.3940  -16.6650   35.0600 O   0  0  0  0  0  0  0  0  0  0  0  0
  -11.1610  -16.2530   38.0360 H   0  0  0  0  0  0  0  0  0  0  0  0
   -8.6680  -17.3350   37.4630 C   0  0  0  0  0  0  0  0  0  0  0  0
   -8.6270  -18.8200   37.6720 C   0  0  0  0  0  0  0  0  0  0  0  0
   -7.6160  -19.4190   38.6040 C   0  0  0  0  0  0  0  0  0  0  0  0
   -6.6450  -18.5330   39.3270 C   0  0  0  0  0  0  0  0  0  0  0  0
   -6.6860  -17.0480   39.1190 C   0  0  0  0  0  0  0  0  0  0  0  0
   -7.6970  -16.4490   38.1870 C   0  0  0  0  0  0  0  0  0  0  0  0
   -7.7380  -14.9640   37.9780 F   0  0  0  0  0  0  0  0  0  0  0  0
   -9.2950  -19.4290   37.1740 H   0  0  0  0  0  0  0  0  0  0  0  0
   -7.5880  -20.4410   38.7470 H   0  0  0  0  0  0  0  0  0  0  0  0
   -5.9500  -18.9450   39.9690 H   0  0  0  0  0  0  0  0  0  0  0  0
   -6.0180  -16.4380   39.6170 H   0  0  0  0  0  0  0  0  0  0  0  0
  -14.9580  -17.2380   38.3870 N   0  0  0  0  0  1  0  0  0  0  0  0
  -14.2160  -16.4870   37.3200 C   0  0  0  0  0  2  0  0  0  0  0  0
  1 34  1  0
  2  1  2  0
  2 18  1  0
  3  2  1  0
  4  3  1  0
  4  5  2  0
  5  1  1  0
  6  5  1  0
  6 10  1  0
  9 17  1  0
 11  6  1  0
 12  7  1  0
 13  7  1  0
 14  8  1  0
 15  8  1  0
 16  9  1  0
 18 21  1  0
 19 18  1  0
 19 22  1  0
 20 19  2  0
 22 23  2  0
 22 27  1  0
 23 24  1  0
 24 30  1  0
 24 25  2  0
 25 31  1  0
 26 25  1  0
 26 32  1  0
 27 26  2  0
 28 27  1  0
 29 23  1  0
 34 33  1  0
M  END
>  <minimizedAffinity>  (79) 
-7.99685574

$$$$

     RDKit          3D

 38 35  0  0  0  0  0  0  0  0999 V2000
  -13.0070  -16.3360   36.7050 N   0  0  0  0  0 15  0  0  0  0  0  0
  -11.5770  -15.9490   36.4670 C   0  0  0  0  0  2  0  0  0  0  0  0
  -11.5470  -14.9400   35.3580 N   0  0  0  0  0  2  0  0  0  0  0  0
  -12.9590  -14.7030   34.9100 C   0  0  0  0  0  0  0  0  0  0  0  0
  -13.5400  -13.8130   33.8510 C   0  0  0  0  0  0  0  0  0  0  0  0
  -15.0230  -13.7860   33.6250 N   0  0  0  0  0  0  0  0  0  0  0  0
  -15.9250  -14.6480   34.4580 C   0  0  0  0  0  0  0  0  0  0  0  0
  -15.3440  -15.5380   35.5160 C   0  0  0  0  0  0  0  0  0  0  0  0
  -13.8610  -15.5650   35.7420 C   0  0  0  0  0  3  0  0  0  0  0  0
  -12.9200  -13.2200   33.2780 H   0  0  0  0  0  0  0  0  0  0  0  0
  -16.9450  -14.6290   34.3020 H   0  0  0  0  0  0  0  0  0  0  0  0
  -15.9640  -16.1310   36.0890 H   0  0  0  0  0  0  0  0  0  0  0  0
  -10.3860  -16.4780   37.2090 C   0  0  0  0  0  0  0  0  0  0  0  0
  -10.2670  -16.6250   38.6970 N   0  0  0  0  0  0  0  0  0  0  0  0
   -8.9110  -17.1920   39.0010 O   0  0  0  0  0  0  0  0  0  0  0  0
   -8.1920  -17.3950   37.7000 N   0  0  0  0  0  0  0  0  0  0  0  0
   -9.1030  -16.9540   36.5920 C   0  0  0  0  0  0  0  0  0  0  0  0
   -8.7870  -16.9840   35.1270 N   0  0  0  0  0  0  0  0  0  0  0  0
   -9.4540  -16.6720   34.4730 H   0  0  0  0  0  0  0  0  0  0  0  0
   -7.9130  -17.3160   34.8180 H   0  0  0  0  0  0  0  0  0  0  0  0
  -13.4960  -17.3190   37.7260 C   0  0  0  0  0  2  0  0  0  0  0  0
  -13.5430  -18.3610   37.4860 H   0  0  0  0  0  0  0  0  0  0  0  0
  -13.1940  -17.6590   36.7570 H   0  0  0  0  0  0  0  0  0  0  0  0
  -13.9200  -16.8440   39.0840 C   0  0  0  0  0  2  0  0  0  0  0  0
  -13.3130  -16.1420   39.6180 H   0  0  0  0  0  0  0  0  0  0  0  0
  -13.0110  -16.4810   38.6490 H   0  0  0  0  0  0  0  0  0  0  0  0
  -15.1930  -17.3510   39.6930 C   0  0  0  0  0  3  0  0  0  0  0  0
  -15.1890  -18.2550   40.2660 H   0  0  0  0  0  0  0  0  0  0  0  0
  -14.2810  -17.8920   39.8310 H   0  0  0  0  0  0  0  0  0  0  0  0
  -16.4720  -16.5910   39.4990 N   0  0  0  0  0  0  0  0  0  0  0  0
  -16.8040  -15.4390   40.4010 C   0  0  0  0  0  0  0  0  0  0  0  0
  -17.7170  -14.8970   40.2630 H   0  0  0  0  0  0  0  0  0  0  0  0
  -16.1290  -15.1590   41.1820 H   0  0  0  0  0  0  0  0  0  0  0  0
  -17.0410  -14.6180   41.0430 H   0  0  0  0  0  0  0  0  0  0  0  0
  -17.4190  -16.9840   38.4040 C   0  0  0  0  0  0  0  0  0  0  0  0
  -17.1830  -17.8050   37.7610 H   0  0  0  0  0  0  0  0  0  0  0  0
  -18.3310  -16.4420   38.2650 H   0  0  0  0  0  0  0  0  0  0  0  0
  -18.0950  -17.2630   37.6220 H   0  0  0  0  0  0  0  0  0  0  0  0
  2 13  1  0
  3  2  1  0
  4  3  1  0
  4  9  1  0
  5  4  2  0
  6  5  1  0
  6  7  2  0
  7  8  1  0
  8  9  2  0
  8 12  1  0
 10  5  1  0
 11  7  1  0
 13 14  2  0
 14 15  1  0
 16 15  1  0
 17 13  1  0
 17 16  2  0
 18 17  1  0
 19 18  1  0
 20 18  1  0
 22 21  1  0
 23 21  1  0
 24 25  1  0
 26 24  1  0
 27 29  1  0
 27 28  1  0
 30 27  1  0
 30 31  1  0
 31 34  1  0
 31 33  1  0
 32 31  1  0
 35 30  1  0
 36 35  1  0
 37 35  1  0
 38 35  1  0
M  END
>  <minimizedAffinity>  (80) 
-8.83943748

$$$$

     RDKit          3D

 42 45  0  0  1  0  0  0  0  0999 V2000
  -17.3110  -14.8770   35.1240 N   0  0  0  0  0  0  0  0  0  0  0  0
  -15.9050  -15.3150   34.8370 N   0  0  0  0  0  0  0  0  0  0  0  0
  -15.4690  -16.2270   35.9450 C   0  0  0  0  0  0  0  0  0  0  0  0
  -16.6060  -16.3540   36.9160 C   0  0  0  0  0  0  0  0  0  0  0  0
  -16.7510  -17.1210   38.1970 C   0  0  0  0  0  3  0  0  0  0  0  0
  -18.0340  -17.0530   38.9700 N   0  0  0  0  0  0  0  0  0  0  0  0
  -19.1730  -16.2190   38.4620 C   0  0  0  0  0  0  0  0  0  0  0  0
  -19.0280  -15.4520   37.1810 N   0  0  0  0  0  2  0  0  0  0  0  0
  -17.7440  -15.5190   36.4080 C   0  0  0  0  0  0  0  0  0  0  0  0
  -14.5490  -16.6870   36.0250 H   0  0  0  0  0  0  0  0  0  0  0  0
  -20.0560  -16.1730   38.9940 H   0  0  0  0  0  0  0  0  0  0  0  0
  -19.3170  -13.4300   32.0190 C   0  0  0  0  0  0  0  0  0  0  0  0
  -19.7950  -12.1220   32.5760 C   0  0  0  0  0  0  0  0  0  0  0  0
  -19.4460  -11.7320   33.9810 C   0  0  0  0  0  0  0  0  0  0  0  0
  -18.6180  -12.6510   34.8310 C   0  0  0  0  0  0  0  0  0  0  0  0
  -18.1390  -13.9590   34.2740 C   0  0  0  0  0  0  0  0  0  0  0  0
  -18.4880  -14.3490   32.8690 C   0  0  0  0  0  0  0  0  0  0  0  0
  -20.3650  -11.4900   31.9920 H   0  0  0  0  0  0  0  0  0  0  0  0
  -19.7750  -10.8320   34.3640 H   0  0  0  0  0  0  0  0  0  0  0  0
  -18.3780  -12.3820   35.7970 H   0  0  0  0  0  0  0  0  0  0  0  0
  -18.1600  -15.2490   32.4860 H   0  0  0  0  0  0  0  0  0  0  0  0
  -19.6660  -13.8210   30.6130 O   0  0  0  0  0  0  0  0  0  0  0  0
  -18.8620  -13.2850   29.4650 C   0  0  0  0  0  0  0  0  0  0  0  0
  -18.0400  -12.6250   29.6490 H   0  0  0  0  0  0  0  0  0  0  0  0
  -19.1110  -13.5630   28.4630 H   0  0  0  0  0  0  0  0  0  0  0  0
  -18.2890  -12.9040   28.6460 H   0  0  0  0  0  0  0  0  0  0  0  0
  -15.6120  -17.9550   38.7040 N   0  0  0  0  0  0  0  0  0  0  0  0
  -15.7720  -18.6380   39.3960 H   0  0  0  0  0  0  0  0  0  0  0  0
  -14.2300  -17.7490   38.1590 N   0  0  0  0  0  0  0  0  0  0  0  0
  -13.3050  -16.7650   38.8110 C   0  0  0  0  0  0  0  0  0  0  0  0
  -13.6190  -16.2300   39.6360 H   0  0  0  0  0  0  0  0  0  0  0  0
  -11.9230  -16.5600   38.2660 C   0  0  0  0  0  0  0  0  0  0  0  0
  -10.7430  -16.5600   39.1920 C   0  0  0  0  0  0  0  0  0  0  0  0
   -9.3610  -16.3540   38.6470 C   0  0  0  0  0  0  0  0  0  0  0  0
   -9.1590  -16.1490   37.1750 C   0  0  0  0  0  0  0  0  0  0  0  0
  -10.3380  -16.1480   36.2480 C   0  0  0  0  0  0  0  0  0  0  0  0
  -10.1360  -15.9430   34.7760 F   0  0  0  0  0  0  0  0  0  0  0  0
  -11.7210  -16.3540   36.7940 C   0  0  0  0  0  0  0  0  0  0  0  0
  -10.8820  -16.7010   40.2050 H   0  0  0  0  0  0  0  0  0  0  0  0
   -8.5490  -16.3540   39.2840 H   0  0  0  0  0  0  0  0  0  0  0  0
   -8.2080  -16.0070   36.7990 H   0  0  0  0  0  0  0  0  0  0  0  0
  -12.5320  -16.3540   36.1560 H   0  0  0  0  0  0  0  0  0  0  0  0
  1  9  1  0
  2  1  1  0
  2  3  2  0
  3 10  1  0
  3  4  1  0
  4  5  1  0
  5 27  1  0
  5  6  1  0
  7  6  2  0
  7 11  1  0
  8  7  1  0
  9  4  2  0
  9  8  1  0
 12 13  2  0
 12 17  1  0
 13 14  1  0
 14 19  1  0
 14 15  2  0
 15 20  1  0
 16 15  1  0
 16  1  1  0
 17 16  2  0
 18 13  1  0
 21 17  1  0
 22 12  1  0
 23 24  1  0
 23 22  1  0
 25 23  1  0
 26 23  1  0
 27 28  1  0
 29 27  1  0
 29 30  2  0
 30 31  1  0
 32 30  1  0
 32 33  1  0
 33 39  1  0
 34 33  2  0
 34 40  1  0
 35 34  1  0
 36 38  1  0
 36 35  2  0
 37 36  1  0
 38 32  2  0
 41 35  1  0
 42 38  1  0
M  END
>  <minimizedAffinity>  (81) 
-8.07478714

$$$$

     RDKit          3D

 50 53  0  0  0  0  0  0  0  0999 V2000
  -13.1600  -16.0250   37.3370 C   0  0  0  0  0  0  0  0  0  0  0  0
  -12.4030  -16.7660   38.3990 C   0  0  0  0  0  0  0  0  0  0  0  0
  -13.1000  -17.1940   39.6560 C   0  0  0  0  0  0  0  0  0  0  0  0
  -14.5540  -16.8810   39.8520 N   0  0  0  0  0  0  0  0  0  0  0  0
  -15.3110  -16.1390   38.7900 C   0  0  0  0  0  0  0  0  0  0  0  0
  -16.7650  -15.8260   38.9850 N   0  0  0  0  0  0  0  0  0  0  0  0
  -14.6140  -15.7110   37.5320 N   0  0  0  0  0  0  0  0  0  0  0  0
  -11.4030  -16.9820   38.2640 H   0  0  0  0  0  0  0  0  0  0  0  0
  -12.5790  -17.7040   40.3870 H   0  0  0  0  0  0  0  0  0  0  0  0
  -17.2220  -16.1070   39.8100 H   0  0  0  0  0  0  0  0  0  0  0  0
  -17.5210  -15.0850   37.9230 C   0  0  0  0  0  0  0  0  0  0  0  0
  -18.2760  -13.8370   38.2730 C   0  0  0  0  0  0  0  0  0  0  0  0
  -19.0330  -13.0960   37.2110 C   0  0  0  0  0  0  0  0  0  0  0  0
  -19.0350  -13.6020   35.7990 C   0  0  0  0  0  0  0  0  0  0  0  0
  -18.2800  -14.8510   35.4490 C   0  0  0  0  0  0  0  0  0  0  0  0
  -17.5230  -15.5920   36.5110 C   0  0  0  0  0  0  0  0  0  0  0  0
  -18.2820  -15.3580   34.0380 O   0  0  0  0  0  0  0  0  0  0  0  0
  -19.0390  -14.6160   32.9760 C   0  0  0  0  0  3  0  0  0  0  0  0
  -19.7940  -13.3680   33.3250 C   0  0  0  0  0  2  0  0  0  0  0  0
  -19.7920  -12.8610   34.7370 O   0  0  0  0  0  1  0  0  0  0  0  0
  -18.2750  -13.4880   39.2440 H   0  0  0  0  0  0  0  0  0  0  0  0
  -19.5520  -12.2370   37.4510 H   0  0  0  0  0  0  0  0  0  0  0  0
  -17.0040  -16.4510   36.2710 H   0  0  0  0  0  0  0  0  0  0  0  0
  -19.0400  -14.9780   31.9680 H   0  0  0  0  0  0  0  0  0  0  0  0
  -19.5790  -14.0880   32.2180 H   0  0  0  0  0  0  0  0  0  0  0  0
  -20.3340  -12.8400   32.5680 H   0  0  0  0  0  0  0  0  0  0  0  0
  -20.3320  -12.4780   33.5750 H   0  0  0  0  0  0  0  0  0  0  0  0
  -11.0100  -15.7940   35.7660 C   0  0  0  0  0  0  0  0  0  0  0  0
  -10.7450  -15.2160   34.4080 N   0  0  0  0  0  0  0  0  0  0  0  0
  -12.0360  -14.6610   33.8810 N   0  0  0  0  0  0  0  0  0  0  0  0
  -12.3810  -13.9720   32.5940 N   0  0  0  0  0  0  0  0  0  0  0  0
  -13.7880  -13.5180   32.3410 C   0  0  0  0  0  0  0  0  0  0  0  0
  -14.8510  -13.7540   33.3740 C   0  0  0  0  0  0  0  0  0  0  0  0
  -14.5050  -14.4430   34.6600 C   0  0  0  0  0  0  0  0  0  0  0  0
  -13.0980  -14.8960   34.9140 C   0  0  0  0  0  0  0  0  0  0  0  0
  -12.4630  -15.5970   36.0790 C   0  0  0  0  0  0  0  0  0  0  0  0
  -14.0260  -13.0440   31.4550 H   0  0  0  0  0  0  0  0  0  0  0  0
  -15.8180  -13.4420   33.1990 H   0  0  0  0  0  0  0  0  0  0  0  0
  -15.2350  -14.6050   35.3720 H   0  0  0  0  0  0  0  0  0  0  0  0
   -6.9630  -18.4350   39.3230 F   0  0  0  0  0  0  0  0  0  0  0  0
   -7.9750  -17.7740   38.4340 C   0  0  0  0  0  0  0  0  0  0  0  0
   -8.2920  -16.3190   38.6100 C   0  0  0  0  0  0  0  0  0  0  0  0
   -9.3030  -15.6590   37.7210 C   0  0  0  0  0  0  0  0  0  0  0  0
   -9.9980  -16.4540   36.6550 C   0  0  0  0  0  0  0  0  0  0  0  0
   -9.6800  -17.9100   36.4790 C   0  0  0  0  0  0  0  0  0  0  0  0
   -8.6690  -18.5690   37.3680 C   0  0  0  0  0  0  0  0  0  0  0  0
   -7.8140  -15.7720   39.3430 H   0  0  0  0  0  0  0  0  0  0  0  0
   -9.5220  -14.6570   37.8420 H   0  0  0  0  0  0  0  0  0  0  0  0
  -10.1580  -18.4570   35.7460 H   0  0  0  0  0  0  0  0  0  0  0  0
   -8.4510  -19.5710   37.2470 H   0  0  0  0  0  0  0  0  0  0  0  0
  1  7  2  0
  1  2  1  0
  2  3  2  0
  3  4  1  0
  3  9  1  0
  5  6  1  0
  5  4  2  0
  6 10  1  0
  7  5  1  0
  8  2  1  0
 11 12  1  0
 11  6  1  0
 12 21  1  0
 13 22  1  0
 13 12  2  0
 14 13  1  0
 15 14  2  0
 15 16  1  0
 16 11  2  0
 17 15  1  0
 18 17  1  0
 19 27  1  0
 20 14  1  0
 23 16  1  0
 24 18  1  0
 25 18  1  0
 26 19  1  0
 28 36  1  0
 28 44  1  0
 29 28  2  0
 30 29  1  0
 30 35  1  0
 31 30  1  0
 32 31  2  0
 32 33  1  0
 33 34  2  0
 34 35  1  0
 34 39  1  0
 35 36  2  0
 36  1  1  0
 37 32  1  0
 38 33  1  0
 41 42  1  0
 41 40  1  0
 42 47  1  0
 43 48  1  0
 43 42  2  0
 44 43  1  0
 45 44  2  0
 45 46  1  0
 46 41  2  0
 49 45  1  0
 50 46  1  0
M  END
>  <minimizedAffinity>  (82) 
-9.93380165

$$$$

     RDKit          3D

 46 48  0  0  0  0  0  0  0  0999 V2000
  -13.3030  -15.0190   35.0800 C   0  0  0  0  0  0  0  0  0  0  0  0
  -14.6950  -15.3230   35.5470 C   0  0  0  0  0  0  0  0  0  0  0  0
  -15.8720  -14.7130   34.8440 C   0  0  0  0  0  0  0  0  0  0  0  0
  -15.6560  -13.7990   33.6750 C   0  0  0  0  0  0  0  0  0  0  0  0
  -14.2630  -13.4950   33.2080 C   0  0  0  0  0  0  0  0  0  0  0  0
  -13.0870  -14.1050   33.9100 N   0  0  0  0  0  0  0  0  0  0  0  0
  -14.8440  -15.9520   36.3520 H   0  0  0  0  0  0  0  0  0  0  0  0
  -16.4650  -13.3790   33.1920 H   0  0  0  0  0  0  0  0  0  0  0  0
  -14.1150  -12.8660   32.4030 H   0  0  0  0  0  0  0  0  0  0  0  0
   -9.7730  -16.8490   37.1870 C   0  0  0  0  0  3  0  0  0  0  0  0
  -11.1340  -16.9100   37.8140 C   0  0  0  0  0  0  0  0  0  0  0  0
  -12.3110  -16.3000   37.1110 C   0  0  0  0  0  0  0  0  0  0  0  0
  -12.1260  -15.6290   35.7820 C   0  0  0  0  0  0  0  0  0  0  0  0
  -10.7650  -15.5680   35.1560 C   0  0  0  0  0  0  0  0  0  0  0  0
   -9.5880  -16.1780   35.8580 C   0  0  0  0  0  0  0  0  0  0  0  0
  -11.2620  -17.3710   38.7280 H   0  0  0  0  0  0  0  0  0  0  0  0
  -13.2480  -16.3420   37.5420 H   0  0  0  0  0  0  0  0  0  0  0  0
  -10.6370  -15.1070   34.2410 H   0  0  0  0  0  0  0  0  0  0  0  0
   -8.6510  -16.1370   35.4270 H   0  0  0  0  0  0  0  0  0  0  0  0
   -8.5960  -17.4590   37.8900 C   0  0  0  0  0  3  0  0  0  0  0  0
   -8.7230  -16.3960   37.8830 H   0  0  0  0  0  0  0  0  0  0  0  0
   -8.4180  -18.9480   37.8990 C   0  0  0  0  0  0  0  0  0  0  0  0
   -9.1300  -19.5760   37.4050 H   0  0  0  0  0  0  0  0  0  0  0  0
   -7.5790  -19.3840   38.4000 H   0  0  0  0  0  0  0  0  0  0  0  0
   -8.2910  -20.0110   37.9060 H   0  0  0  0  0  0  0  0  0  0  0  0
   -7.5980  -16.5800   38.5820 C   0  0  0  0  0  0  0  0  0  0  0  0
   -6.7590  -17.0150   39.0830 H   0  0  0  0  0  0  0  0  0  0  0  0
   -7.7250  -15.5170   38.5760 H   0  0  0  0  0  0  0  0  0  0  0  0
   -6.8860  -15.9520   39.0770 H   0  0  0  0  0  0  0  0  0  0  0  0
  -17.2650  -15.0170   35.3110 C   0  0  0  0  0  0  0  0  0  0  0  0
  -18.5280  -14.7660   34.5420 C   0  0  0  0  0  0  0  0  0  0  0  0
  -19.6820  -15.2190   35.3850 N   0  0  0  0  0  0  0  0  0  0  0  0
  -19.1330  -15.7510   36.6750 N   0  0  0  0  0  0  0  0  0  0  0  0
  -17.6390  -15.6260   36.6300 C   0  0  0  0  0  0  0  0  0  0  0  0
  -18.5900  -14.3530   33.5980 H   0  0  0  0  0  0  0  0  0  0  0  0
  -20.6340  -15.1760   35.1350 H   0  0  0  0  0  0  0  0  0  0  0  0
  -16.6870  -16.0370   37.7130 C   0  0  0  0  0  0  0  0  0  0  0  0
  -16.1320  -17.4310   37.7350 C   0  0  0  0  0  0  0  0  0  0  0  0
  -15.1800  -17.8430   38.8180 C   0  0  0  0  0  0  0  0  0  0  0  0
  -14.7820  -16.8610   39.8800 C   0  0  0  0  0  0  0  0  0  0  0  0
  -15.3360  -15.4670   39.8590 C   0  0  0  0  0  0  0  0  0  0  0  0
  -16.2880  -15.0550   38.7750 N   0  0  0  0  0  0  0  0  0  0  0  0
  -16.4070  -18.1070   37.0040 H   0  0  0  0  0  0  0  0  0  0  0  0
  -14.7990  -18.8020   38.8330 H   0  0  0  0  0  0  0  0  0  0  0  0
  -14.1270  -17.1440   40.6250 H   0  0  0  0  0  0  0  0  0  0  0  0
  -15.0620  -14.7920   40.5890 H   0  0  0  0  0  0  0  0  0  0  0  0
  1  2  1  0
  1 13  1  0
  2  7  1  0
  3 30  1  0
  3  2  2  0
  4  3  1  0
  5  4  2  0
  5  6  1  0
  6  1  2  0
  8  4  1  0
  9  5  1  0
 10 11  1  0
 11 16  1  0
 12 17  1  0
 12 11  2  0
 13 12  1  0
 14 13  2  0
 14 15  1  0
 15 10  2  0
 18 14  1  0
 19 15  1  0
 20 22  1  0
 20 26  1  0
 21 20  1  0
 22 25  1  0
 22 24  1  0
 23 22  1  0
 26 29  1  0
 26 27  1  0
 28 26  1  0
 30 34  1  0
 31 30  2  0
 31 32  1  0
 32 33  1  0
 34 33  2  0
 34 37  1  0
 35 31  1  0
 36 32  1  0
 37 38  2  0
 37 42  1  0
 38 39  1  0
 39 44  1  0
 39 40  2  0
 40 45  1  0
 41 40  1  0
 41 46  1  0
 42 41  2  0
 43 38  1  0
M  END
>  <minimizedAffinity>  (83) 
-9.73896217

$$$$

     RDKit          3D

 31 33  0  0  0  0  0  0  0  0999 V2000
  -12.1630  -17.1140   39.4620 N   0  0  0  0  0  0  0  0  0  0  0  0
  -13.6120  -16.9020   39.1360 C   0  0  0  0  0  0  0  0  0  0  0  0
  -14.7740  -17.2660   40.0110 N   0  0  0  0  0  0  0  0  0  0  0  0
  -16.0340  -16.8780   39.2930 C   0  0  0  0  0  0  0  0  0  0  0  0
  -15.6490  -16.2740   37.9750 C   0  0  0  0  0  0  0  0  0  0  0  0
  -14.1520  -16.2890   37.8780 O   0  0  0  0  0  0  0  0  0  0  0  0
  -11.9060  -17.5260   40.3180 H   0  0  0  0  0  0  0  0  0  0  0  0
  -16.9950  -17.0040   39.6450 H   0  0  0  0  0  0  0  0  0  0  0  0
  -16.5950  -15.7490   36.9370 C   0  0  0  0  0  0  0  0  0  0  0  0
  -16.0640  -15.2160   35.6390 C   0  0  0  0  0  0  0  0  0  0  0  0
  -17.0100  -14.6900   34.6010 C   0  0  0  0  0  0  0  0  0  0  0  0
  -18.4870  -14.6960   34.8600 C   0  0  0  0  0  0  0  0  0  0  0  0
  -19.0180  -15.2290   36.1580 C   0  0  0  0  0  0  0  0  0  0  0  0
  -18.0720  -15.7550   37.1960 C   0  0  0  0  0  0  0  0  0  0  0  0
  -15.0470  -15.2120   35.4600 H   0  0  0  0  0  0  0  0  0  0  0  0
  -16.6440  -14.3240   33.7080 H   0  0  0  0  0  0  0  0  0  0  0  0
  -19.1380  -14.3350   34.1460 H   0  0  0  0  0  0  0  0  0  0  0  0
  -20.0340  -15.2330   36.3360 H   0  0  0  0  0  0  0  0  0  0  0  0
  -18.4380  -16.1210   38.0890 H   0  0  0  0  0  0  0  0  0  0  0  0
  -10.4040  -16.0590   36.0640 C   0  0  0  0  0  0  0  0  0  0  0  0
   -8.9910  -15.8630   36.5260 C   0  0  0  0  0  0  0  0  0  0  0  0
   -8.6340  -16.0840   37.9660 C   0  0  0  0  0  0  0  0  0  0  0  0
   -9.6920  -16.5010   38.9450 C   0  0  0  0  0  0  0  0  0  0  0  0
  -11.1050  -16.6970   38.4830 C   0  0  0  0  0  0  0  0  0  0  0  0
  -11.4620  -16.4760   37.0430 C   0  0  0  0  0  0  0  0  0  0  0  0
   -8.2630  -15.5760   35.8520 H   0  0  0  0  0  0  0  0  0  0  0  0
   -7.6610  -15.9490   38.2830 H   0  0  0  0  0  0  0  0  0  0  0  0
   -9.4470  -16.6530   39.9360 H   0  0  0  0  0  0  0  0  0  0  0  0
  -12.4350  -16.6110   36.7250 H   0  0  0  0  0  0  0  0  0  0  0  0
  -11.1170  -15.6170   33.1840 N   0  0  0  0  0  1  0  0  0  0  0  0
  -10.7600  -15.8380   34.6240 C   0  0  0  0  0  2  0  0  0  0  0  0
  1  7  1  0
  2  1  1  0
  2  3  2  0
  4  8  1  0
  4  3  1  0
  5  4  2  0
  6  5  1  0
  6  2  1  0
  9 14  1  0
  9  5  1  0
 10  9  2  0
 11 12  2  0
 11 10  1  0
 12 13  1  0
 13 18  1  0
 13 14  2  0
 14 19  1  0
 15 10  1  0
 16 11  1  0
 17 12  1  0
 20 21  2  0
 20 25  1  0
 21 22  1  0
 22 27  1  0
 22 23  2  0
 23 28  1  0
 24 23  1  0
 24  1  1  0
 25 24  2  0
 26 21  1  0
 29 25  1  0
 30 31  1  0
 31 20  1  0
M  END
>  <minimizedAffinity>  (84) 
-8.01342964

$$$$

     RDKit          3D

 66 67  0  0  0  0  0  0  0  0999 V2000
  -13.9510  -16.8550   38.5050 C   0  0  0  0  0  0  0  0  0  0  0  0
  -14.6120  -17.6880   39.5640 C   0  0  0  0  0  0  0  0  0  0  0  0
  -16.1080  -17.7110   39.6740 C   0  0  0  0  0  0  0  0  0  0  0  0
  -16.9420  -16.9010   38.7260 C   0  0  0  0  0  0  0  0  0  0  0  0
  -18.4380  -16.9240   38.8370 N   0  0  0  0  0  0  0  0  0  0  0  0
  -19.2730  -16.1150   37.8890 C   0  0  0  0  0  0  0  0  0  0  0  0
  -18.6120  -15.2820   36.8310 N   0  0  0  0  0  0  0  0  0  0  0  0
  -17.1160  -15.2590   36.7200 C   0  0  0  0  0  0  0  0  0  0  0  0
  -16.4550  -14.4270   35.6620 N   0  0  0  0  0  0  0  0  0  0  0  0
  -16.2810  -16.0690   37.6680 C   0  0  0  0  0  0  0  0  0  0  0  0
  -14.7860  -16.0460   37.5580 C   0  0  0  0  0  0  0  0  0  0  0  0
  -14.0380  -18.2440   40.2160 H   0  0  0  0  0  0  0  0  0  0  0  0
  -16.5630  -18.2830   40.4020 H   0  0  0  0  0  0  0  0  0  0  0  0
  -20.3020  -16.1300   37.9650 H   0  0  0  0  0  0  0  0  0  0  0  0
  -15.4730  -14.4110   35.5890 H   0  0  0  0  0  0  0  0  0  0  0  0
  -14.3310  -15.4730   36.8290 H   0  0  0  0  0  0  0  0  0  0  0  0
  -17.2890  -13.6170   34.7150 C   0  0  0  0  0  0  0  0  0  0  0  0
  -18.2230  -12.5690   35.2440 C   0  0  0  0  0  0  0  0  0  0  0  0
  -19.0570  -11.7600   34.2970 C   0  0  0  0  0  0  0  0  0  0  0  0
  -18.9590  -11.9980   32.8190 C   0  0  0  0  0  0  0  0  0  0  0  0
  -18.0260  -13.0460   32.2890 C   0  0  0  0  0  0  0  0  0  0  0  0
  -17.9270  -13.2850   30.8120 Br  0  0  0  0  0  0  0  0  0  0  0  0
  -17.1910  -13.8560   33.2370 C   0  0  0  0  0  0  0  0  0  0  0  0
  -18.2910  -12.4050   36.2610 H   0  0  0  0  0  0  0  0  0  0  0  0
  -19.6990  -11.0380   34.6620 H   0  0  0  0  0  0  0  0  0  0  0  0
  -16.5490  -14.5770   32.8720 H   0  0  0  0  0  0  0  0  0  0  0  0
  -19.7930  -11.1890   31.8710 O   0  0  0  0  0  0  0  0  0  0  0  0
  -19.3010   -9.8570   31.3880 C   0  0  0  0  0  0  0  0  0  0  0  0
  -19.5370   -8.9680   31.9360 H   0  0  0  0  0  0  0  0  0  0  0  0
  -18.9500   -8.9060   31.0440 H   0  0  0  0  0  0  0  0  0  0  0  0
  -18.4770   -9.7700   30.1380 C   0  0  0  0  0  0  0  0  0  0  0  0
  -16.9830   -9.6720   30.2290 C   0  0  0  0  0  0  0  0  0  0  0  0
  -16.1590   -9.5860   28.9790 C   0  0  0  0  0  0  0  0  0  0  0  0
  -16.8300   -9.5970   27.6370 C   0  0  0  0  0  0  0  0  0  0  0  0
  -18.3230   -9.6950   27.5450 C   0  0  0  0  0  0  0  0  0  0  0  0
  -19.1470   -9.7820   28.7960 C   0  0  0  0  0  0  0  0  0  0  0  0
  -16.5220   -9.6640   31.1520 H   0  0  0  0  0  0  0  0  0  0  0  0
  -15.1310   -9.5180   29.0420 H   0  0  0  0  0  0  0  0  0  0  0  0
  -16.2630   -9.5380   26.7760 H   0  0  0  0  0  0  0  0  0  0  0  0
  -18.7850   -9.7030   26.6220 H   0  0  0  0  0  0  0  0  0  0  0  0
  -20.1750   -9.8490   28.7330 H   0  0  0  0  0  0  0  0  0  0  0  0
  -10.2000  -17.0770   37.5310 C   0  0  0  0  0  3  0  0  0  0  0  0
  -10.1060  -16.5160   38.9190 C   0  0  0  0  0  0  0  0  0  0  0  0
  -11.5000  -16.3640   39.4530 C   0  0  0  0  0  0  0  0  0  0  0  0
  -12.4550  -16.8320   38.3950 C   0  0  0  0  0  0  0  0  0  0  0  0
  -11.6520  -17.2720   37.2070 O   0  0  0  0  0  0  0  0  0  0  0  0
   -9.2360  -16.2770   39.4180 H   0  0  0  0  0  0  0  0  0  0  0  0
  -11.7570  -16.0020   40.3840 H   0  0  0  0  0  0  0  0  0  0  0  0
   -9.0450  -17.3880   36.6250 C   0  0  0  0  0  3  0  0  0  0  0  0
   -8.2960  -18.0860   36.9350 H   0  0  0  0  0  0  0  0  0  0  0  0
   -9.1200  -17.8640   37.5810 H   0  0  0  0  0  0  0  0  0  0  0  0
   -8.9420  -16.7210   35.2860 N   0  0  0  0  0  2  0  0  0  0  0  0
   -8.0270  -16.4620   34.9140 H   0  0  0  0  0  0  0  0  0  0  0  0
  -10.1830  -16.4350   34.4930 C   0  0  0  0  0  2  0  0  0  0  0  0
  -10.6420  -17.2110   33.9180 H   0  0  0  0  0  0  0  0  0  0  0  0
   -9.7570  -17.4160   34.4830 H   0  0  0  0  0  0  0  0  0  0  0  0
  -10.7800  -15.0580   34.5070 C   0  0  0  0  0  3  0  0  0  0  0  0
  -10.2310  -14.2410   34.9260 H   0  0  0  0  0  0  0  0  0  0  0  0
   -9.8050  -15.2220   34.9160 H   0  0  0  0  0  0  0  0  0  0  0  0
  -12.1470  -14.8290   33.9340 S   0  0  2  0  0  0  0  0  0  0  0  0
  -11.5920  -14.9800   32.5500 O   0  0  0  0  0  0  0  0  0  0  0  0
  -12.7020  -14.6780   35.3200 O   0  0  0  0  0  0  0  0  0  0  0  0
  -13.5140  -14.6000   33.3620 C   0  0  0  0  0  0  0  0  0  0  0  0
  -14.3450  -14.4240   34.0140 H   0  0  0  0  0  0  0  0  0  0  0  0
  -13.6590  -14.6110   32.3030 H   0  0  0  0  0  0  0  0  0  0  0  0
  -14.4900  -14.4360   32.9540 H   0  0  0  0  0  0  0  0  0  0  0  0
  1  2  1  0
  2  3  2  0
  2 12  1  0
  3 13  1  0
  4  5  1  0
  4  3  1  0
  6 14  1  0
  6  5  2  0
  7  6  1  0
  8  7  2  0
  8 10  1  0
  9  8  1  0
 10  4  2  0
 11 10  1  0
 11  1  2  0
 15  9  1  0
 16 11  1  0
 17 18  1  0
 17  9  1  0
 18 24  1  0
 19 25  1  0
 19 18  2  0
 20 19  1  0
 21 20  2  0
 21 23  1  0
 22 21  1  0
 23 17  2  0
 26 23  1  0
 27 20  1  0
 28 27  1  0
 28 29  1  0
 30 28  1  0
 31 32  1  0
 31 28  1  0
 32 37  1  0
 33 38  1  0
 33 32  2  0
 34 33  1  0
 35 34  2  0
 35 36  1  0
 36 31  2  0
 39 34  1  0
 40 35  1  0
 41 36  1  0
 42 43  2  0
 43 47  1  0
 43 44  1  0
 44 48  1  0
 45  1  1  0
 45 44  2  0
 46 42  1  0
 46 45  1  0
 49 50  1  0
 49 51  1  0
 52 49  1  0
 53 52  1  0
 55 54  1  0
 56 54  1  0
 57 59  1  0
 57 58  1  0
 60 57  1  0
 60 62  2  0
 61 60  2  0
 63 60  1  0
 63 64  1  0
 65 63  1  0
 66 63  1  0
M  END
>  <minimizedAffinity>  (85) 
-9.34222698

$$$$

     RDKit          3D

 34 37  0  0  1  0  0  0  0  0999 V2000
  -17.2340  -15.6330   36.2630 O   0  0  0  0  0  0  0  0  0  0  0  0
  -17.5650  -16.2640   37.5830 C   0  0  0  0  0  0  0  0  0  0  0  0
  -18.9210  -16.3110   38.2230 N   0  0  0  0  0  0  0  0  0  0  0  0
  -18.7910  -17.0350   39.5310 C   0  0  0  0  0  0  0  0  0  0  0  0
  -19.7950  -17.3820   40.5900 C   0  0  0  0  0  0  0  0  0  0  0  0
  -19.3630  -18.1280   41.8170 C   0  0  0  0  0  0  0  0  0  0  0  0
  -17.9270  -18.5280   41.9850 C   0  0  0  0  0  0  0  0  0  0  0  0
  -16.9230  -18.1810   40.9260 C   0  0  0  0  0  0  0  0  0  0  0  0
  -17.3550  -17.4350   39.6990 C   0  0  0  0  0  0  0  0  0  0  0  0
  -16.5970  -16.9580   38.4950 C   0  0  0  0  0  3  0  0  0  0  0  0
  -15.1290  -17.1430   38.2470 C   0  0  0  0  0  0  0  0  0  0  0  0
  -19.7500  -15.9340   37.8500 H   0  0  0  0  0  0  0  0  0  0  0  0
  -20.7830  -17.1070   40.4740 H   0  0  0  0  0  0  0  0  0  0  0  0
  -20.0540  -18.3670   42.5460 H   0  0  0  0  0  0  0  0  0  0  0  0
  -17.6300  -19.0420   42.8300 H   0  0  0  0  0  0  0  0  0  0  0  0
  -15.9350  -18.4560   41.0420 H   0  0  0  0  0  0  0  0  0  0  0  0
  -14.5470  -17.6380   38.9410 H   0  0  0  0  0  0  0  0  0  0  0  0
  -14.5080  -16.6090   36.9910 N   0  0  0  0  0  4  0  0  0  0  0  0
  -15.0770  -16.3670   36.2250 H   0  0  0  0  0  0  0  0  0  0  0  0
  -13.0190  -16.4440   36.9020 C   0  0  0  0  0  0  0  0  0  0  0  0
  -12.4180  -15.6800   35.7610 C   0  0  0  0  0  0  0  0  0  0  0  0
  -10.9290  -15.5140   35.6720 C   0  0  0  0  0  0  0  0  0  0  0  0
  -10.0430  -16.1120   36.7240 C   0  0  0  0  0  0  0  0  0  0  0  0
   -8.5530  -16.1140   36.8990 N   0  0  0  0  0  0  0  0  0  0  0  0
   -8.2350  -16.8790   38.1500 C   0  0  0  0  0  0  0  0  0  0  0  0
   -6.8640  -17.1290   38.7060 O   0  0  0  0  0  0  0  0  0  0  0  0
   -9.5280  -17.3510   38.7470 N   0  0  0  0  0  0  0  0  0  0  0  0
  -10.6450  -16.8770   37.8650 C   0  0  0  0  0  0  0  0  0  0  0  0
  -12.1340  -17.0420   37.9540 C   0  0  0  0  0  0  0  0  0  0  0  0
  -13.0260  -15.2680   35.0370 H   0  0  0  0  0  0  0  0  0  0  0  0
  -10.5150  -14.9880   34.8860 H   0  0  0  0  0  0  0  0  0  0  0  0
   -7.9000  -15.6870   36.2990 H   0  0  0  0  0  0  0  0  0  0  0  0
   -9.6260  -17.8790   39.5720 H   0  0  0  0  0  0  0  0  0  0  0  0
  -12.5480  -17.5690   38.7400 H   0  0  0  0  0  0  0  0  0  0  0  0
  1  2  2  0
  2  3  1  0
  2 10  1  0
  3  4  1  0
  4  9  2  0
  4  5  1  0
  5  6  2  0
  6  7  1  0
  6 14  1  0
  7 15  1  0
  8 16  1  0
  8  7  2  0
  9  8  1  0
 10 11  1  0
 10  9  1  0
 11 17  1  0
 12  3  1  0
 13  5  1  0
 18 11  2  0
 19 18  1  0
 20 18  1  0
 20 29  1  0
 21 20  2  0
 22 21  1  0
 22 23  2  0
 23 24  1  0
 23 28  1  0
 24 25  1  0
 25 26  2  0
 25 27  1  0
 27 33  1  0
 28 29  2  0
 28 27  1  0
 29 34  1  0
 30 21  1  0
 31 22  1  0
 32 24  1  0
M  END
>  <minimizedAffinity>  (86) 
-8.60044861

$$$$

     RDKit          3D

 42 45  0  0  1  0  0  0  0  0999 V2000
  -16.5260  -15.3560   35.4670 C   0  0  0  0  0  0  0  0  0  0  0  0
  -15.0500  -15.5410   35.2690 C   0  0  0  0  0  0  0  0  0  0  0  0
  -14.5140  -16.2840   36.4560 N   0  0  0  0  0  0  0  0  0  0  0  0
  -15.6580  -16.5590   37.3870 C   0  0  0  0  0  0  0  0  0  0  0  0
  -15.7270  -17.2570   38.7130 C   0  0  0  0  0  3  0  0  0  0  0  0
  -17.0400  -17.3820   39.4270 N   0  0  0  0  0  0  0  0  0  0  0  0
  -18.2840  -16.8080   38.8150 C   0  0  0  0  0  0  0  0  0  0  0  0
  -18.2140  -16.1100   37.4890 N   0  0  0  0  0  2  0  0  0  0  0  0
  -16.9010  -15.9850   36.7760 C   0  0  0  0  0  0  0  0  0  0  0  0
  -14.5010  -15.2140   34.4590 H   0  0  0  0  0  0  0  0  0  0  0  0
  -13.5750  -16.5460   36.6000 H   0  0  0  0  0  0  0  0  0  0  0  0
  -19.1880  -16.8940   39.3060 H   0  0  0  0  0  0  0  0  0  0  0  0
  -17.9420  -12.7560   32.8240 C   0  0  0  0  0  0  0  0  0  0  0  0
  -19.3340  -13.2790   32.6290 C   0  0  0  0  0  0  0  0  0  0  0  0
  -19.7900  -14.4950   33.3800 C   0  0  0  0  0  0  0  0  0  0  0  0
  -18.8540  -15.1870   34.3260 C   0  0  0  0  0  0  0  0  0  0  0  0
  -17.4620  -14.6640   34.5210 C   0  0  0  0  0  0  0  0  0  0  0  0
  -17.0060  -13.4480   33.7700 C   0  0  0  0  0  0  0  0  0  0  0  0
  -19.9780  -12.8030   31.9780 H   0  0  0  0  0  0  0  0  0  0  0  0
  -20.7480  -14.8550   33.2460 H   0  0  0  0  0  0  0  0  0  0  0  0
  -19.1680  -16.0230   34.8420 H   0  0  0  0  0  0  0  0  0  0  0  0
  -16.0480  -13.0880   33.9040 H   0  0  0  0  0  0  0  0  0  0  0  0
  -17.4850  -11.5400   32.0730 O   0  0  0  0  0  0  0  0  0  0  0  0
  -16.4740  -10.6160   32.6850 C   0  0  0  0  0  0  0  0  0  0  0  0
  -16.0780  -10.8260   33.6580 H   0  0  0  0  0  0  0  0  0  0  0  0
  -16.1480   -9.7500   32.1510 H   0  0  0  0  0  0  0  0  0  0  0  0
  -15.7520   -9.9580   33.1220 H   0  0  0  0  0  0  0  0  0  0  0  0
  -14.4840  -17.8310   39.3250 N   0  0  0  0  0  0  0  0  0  0  0  0
  -14.5300  -18.2960   40.1920 H   0  0  0  0  0  0  0  0  0  0  0  0
  -13.1680  -17.6960   38.6170 N   0  0  0  0  0  0  0  0  0  0  0  0
  -12.2170  -16.6020   39.0030 C   0  0  0  0  0  0  0  0  0  0  0  0
  -12.4680  -15.9420   39.7560 H   0  0  0  0  0  0  0  0  0  0  0  0
  -10.9020  -16.4670   38.2950 C   0  0  0  0  0  0  0  0  0  0  0  0
   -9.6340  -16.3400   39.0860 C   0  0  0  0  0  0  0  0  0  0  0  0
   -8.3180  -16.2050   38.3770 C   0  0  0  0  0  0  0  0  0  0  0  0
   -8.2710  -16.1970   36.8780 N   0  0  0  0  0  0  0  0  0  0  0  0
   -9.5390  -16.3250   36.0870 C   0  0  0  0  0  0  0  0  0  0  0  0
  -10.8550  -16.4590   36.7960 C   0  0  0  0  0  0  0  0  0  0  0  0
   -9.6660  -16.3450   40.1170 H   0  0  0  0  0  0  0  0  0  0  0  0
   -7.4460  -16.1170   38.9220 H   0  0  0  0  0  0  0  0  0  0  0  0
   -9.5070  -16.3190   35.0560 H   0  0  0  0  0  0  0  0  0  0  0  0
  -11.7270  -16.5470   36.2510 H   0  0  0  0  0  0  0  0  0  0  0  0
  1  9  1  0
  2  1  2  0
  2  3  1  0
  3 11  1  0
  3  4  1  0
  4  5  1  0
  5 28  1  0
  5  6  1  0
  7 12  1  0
  7  6  2  0
  8  7  1  0
  9  4  2  0
  9  8  1  0
 10  2  1  0
 13 18  1  0
 14 13  2  0
 14 15  1  0
 15 16  2  0
 16 17  1  0
 16 21  1  0
 17  1  1  0
 18 22  1  0
 18 17  2  0
 19 14  1  0
 20 15  1  0
 23 24  1  0
 23 13  1  0
 24 27  1  0
 24 25  1  0
 26 24  1  0
 28 29  1  0
 30 31  2  0
 30 28  1  0
 31 32  1  0
 33 31  1  0
 33 34  1  0
 34 39  1  0
 35 40  1  0
 35 34  2  0
 36 35  1  0
 37 38  1  0
 37 36  2  0
 38 33  2  0
 41 37  1  0
 42 38  1  0
M  END
>  <minimizedAffinity>  (87) 
-7.88163948

$$$$

     RDKit          3D

 35 38  0  0  0  0  0  0  0  0999 V2000
  -16.6460  -15.5750   35.2920 N   0  0  0  0  0  0  0  0  0  0  0  0
  -16.3920  -16.0840   36.6810 C   0  0  0  0  0  0  0  0  0  0  0  0
  -17.4920  -16.7580   37.4450 N   0  0  0  0  0  0  0  0  0  0  0  0
  -17.2390  -17.2670   38.8330 C   0  0  0  0  0  0  0  0  0  0  0  0
  -15.8840  -17.1010   39.4560 C   0  0  0  0  0  0  0  0  0  0  0  0
  -14.7840  -16.4280   38.6920 C   0  0  0  0  0  0  0  0  0  0  0  0
  -15.0380  -15.9190   37.3040 N   0  0  0  0  0  0  0  0  0  0  0  0
  -17.5350  -15.6840   34.8840 H   0  0  0  0  0  0  0  0  0  0  0  0
  -17.9960  -17.7300   39.3590 H   0  0  0  0  0  0  0  0  0  0  0  0
  -15.7100  -17.4520   40.4120 H   0  0  0  0  0  0  0  0  0  0  0  0
  -13.4300  -16.2630   39.3150 C   0  0  0  0  0  0  0  0  0  0  0  0
  -13.1550  -15.8870   40.7410 C   0  0  0  0  0  0  0  0  0  0  0  0
  -11.6680  -15.8360   40.9300 N   0  0  0  0  0  0  0  0  0  0  0  0
  -11.0230  -16.1810   39.6190 N   0  0  0  0  0  0  0  0  0  0  0  0
   -9.5850  -16.2900   39.2060 N   0  0  0  0  0  0  0  0  0  0  0  0
   -9.2360  -16.6610   37.7960 C   0  0  0  0  0  0  0  0  0  0  0  0
  -10.3250  -16.9250   36.7980 C   0  0  0  0  0  0  0  0  0  0  0  0
  -11.7630  -16.8160   37.2110 C   0  0  0  0  0  0  0  0  0  0  0  0
  -12.1120  -16.4450   38.6220 C   0  0  0  0  0  0  0  0  0  0  0  0
  -13.8650  -15.6960   41.4650 H   0  0  0  0  0  0  0  0  0  0  0  0
   -8.2470  -16.7360   37.5110 H   0  0  0  0  0  0  0  0  0  0  0  0
  -10.0850  -17.1800   35.8270 H   0  0  0  0  0  0  0  0  0  0  0  0
  -12.5120  -16.9980   36.5250 H   0  0  0  0  0  0  0  0  0  0  0  0
  -13.1140  -14.9040   33.6120 C   0  0  0  0  0  0  0  0  0  0  0  0
  -13.3440  -13.5550   32.9990 C   0  0  0  0  0  0  0  0  0  0  0  0
  -14.6740  -12.8790   33.1500 C   0  0  0  0  0  0  0  0  0  0  0  0
  -15.7750  -13.5530   33.9150 C   0  0  0  0  0  0  0  0  0  0  0  0
  -15.5450  -14.9020   34.5280 C   0  0  0  0  0  0  0  0  0  0  0  0
  -14.2140  -15.5770   34.3770 C   0  0  0  0  0  0  0  0  0  0  0  0
  -12.5860  -13.0910   32.4730 H   0  0  0  0  0  0  0  0  0  0  0  0
  -14.8320  -11.9500   32.7270 H   0  0  0  0  0  0  0  0  0  0  0  0
  -16.6910  -13.0880   34.0180 H   0  0  0  0  0  0  0  0  0  0  0  0
  -14.0560  -16.5050   34.7990 H   0  0  0  0  0  0  0  0  0  0  0  0
  -10.4530  -16.2550   33.3090 N   0  0  0  0  0  1  0  0  0  0  0  0
  -11.7830  -15.5800   33.4610 C   0  0  0  0  0  2  0  0  0  0  0  0
  1  2  1  0
  2  7  1  0
  2  3  2  0
  3  4  1  0
  4  9  1  0
  4  5  2  0
  5 10  1  0
  6 11  1  0
  6  5  1  0
  7  6  2  0
  8  1  1  0
 11 12  1  0
 12 13  2  0
 12 20  1  0
 14 13  1  0
 15 14  1  0
 16 15  2  0
 17 18  2  0
 17 16  1  0
 18 19  1  0
 19 11  2  0
 19 14  1  0
 21 16  1  0
 22 17  1  0
 23 18  1  0
 24 29  1  0
 25 26  1  0
 25 24  2  0
 26 27  2  0
 27 32  1  0
 27 28  1  0
 28  1  1  0
 29 28  2  0
 29 33  1  0
 30 25  1  0
 31 26  1  0
 34 35  1  0
 35 24  1  0
M  END
>  <minimizedAffinity>  (88) 
-8.5506916

$$$$

     RDKit          3D

 43 45  0  0  0  0  0  0  0  0999 V2000
  -12.4140  -16.9140   39.8170 N   0  0  0  0  0  0  0  0  0  0  0  0
  -11.3550  -16.6600   38.7850 C   0  0  0  0  0  0  0  0  0  0  0  0
   -9.9080  -16.8370   39.1370 N   0  0  0  0  0  0  0  0  0  0  0  0
   -8.8490  -16.5840   38.1060 C   0  0  0  0  0  0  0  0  0  0  0  0
   -9.2380  -16.1540   36.7220 C   0  0  0  0  0  0  0  0  0  0  0  0
  -10.6850  -15.9770   36.3700 C   0  0  0  0  0  0  0  0  0  0  0  0
  -11.7430  -16.2300   37.4020 N   0  0  0  0  0  0  0  0  0  0  0  0
  -12.1580  -17.1960   40.7250 H   0  0  0  0  0  0  0  0  0  0  0  0
   -7.8530  -16.7060   38.3470 H   0  0  0  0  0  0  0  0  0  0  0  0
   -8.5090  -15.9800   36.0120 H   0  0  0  0  0  0  0  0  0  0  0  0
  -11.0730  -15.5470   34.9870 C   0  0  0  0  0  0  0  0  0  0  0  0
  -10.2230  -15.6610   33.7570 C   0  0  0  0  0  0  0  0  0  0  0  0
  -11.0040  -15.1110   32.6000 N   0  0  0  0  0  0  0  0  0  0  0  0
  -12.3380  -14.6580   33.1160 N   0  0  0  0  0  0  0  0  0  0  0  0
  -13.5190  -14.0350   32.4330 N   0  0  0  0  0  0  0  0  0  0  0  0
  -14.7430  -13.6810   33.2250 C   0  0  0  0  0  0  0  0  0  0  0  0
  -14.7850  -13.9500   34.7000 C   0  0  0  0  0  0  0  0  0  0  0  0
  -13.6040  -14.5730   35.3830 C   0  0  0  0  0  0  0  0  0  0  0  0
  -12.3810  -14.9270   34.5910 C   0  0  0  0  0  0  0  0  0  0  0  0
   -9.2680  -16.0490   33.7130 H   0  0  0  0  0  0  0  0  0  0  0  0
  -15.5560  -13.2520   32.7550 H   0  0  0  0  0  0  0  0  0  0  0  0
  -15.6270  -13.7060   35.2450 H   0  0  0  0  0  0  0  0  0  0  0  0
  -13.6340  -14.7580   36.3980 H   0  0  0  0  0  0  0  0  0  0  0  0
  -16.7560  -16.3840   38.7620 C   0  0  0  0  0  3  0  0  0  0  0  0
  -16.0590  -15.3590   39.6070 C   0  0  0  0  0  0  0  0  0  0  0  0
  -14.6110  -15.5360   39.9590 C   0  0  0  0  0  0  0  0  0  0  0  0
  -13.8610  -16.7370   39.4660 C   0  0  0  0  0  0  0  0  0  0  0  0
  -14.5580  -17.7610   38.6200 C   0  0  0  0  0  0  0  0  0  0  0  0
  -16.0060  -17.5840   38.2680 C   0  0  0  0  0  0  0  0  0  0  0  0
  -16.5760  -14.5320   39.9470 H   0  0  0  0  0  0  0  0  0  0  0  0
  -14.1320  -14.8310   40.5410 H   0  0  0  0  0  0  0  0  0  0  0  0
  -14.0420  -18.5880   38.2810 H   0  0  0  0  0  0  0  0  0  0  0  0
  -16.4850  -18.2890   37.6870 H   0  0  0  0  0  0  0  0  0  0  0  0
  -18.2040  -16.2070   38.4100 C   0  0  0  0  0  3  0  0  0  0  0  0
  -17.9300  -16.6820   39.3280 H   0  0  0  0  0  0  0  0  0  0  0  0
  -18.5860  -15.5400   37.1210 C   0  0  0  0  0  0  0  0  0  0  0  0
  -17.8260  -15.1900   36.4540 H   0  0  0  0  0  0  0  0  0  0  0  0
  -19.6190  -15.4140   36.8710 H   0  0  0  0  0  0  0  0  0  0  0  0
  -18.8590  -15.0640   36.2020 H   0  0  0  0  0  0  0  0  0  0  0  0
  -19.2680  -16.6960   39.3450 C   0  0  0  0  0  0  0  0  0  0  0  0
  -20.3010  -16.5700   39.0950 H   0  0  0  0  0  0  0  0  0  0  0  0
  -18.9950  -17.1720   40.2640 H   0  0  0  0  0  0  0  0  0  0  0  0
  -20.0270  -17.0460   40.0140 H   0  0  0  0  0  0  0  0  0  0  0  0
  1  8  1  0
  2  3  2  0
  2  1  1  0
  4  9  1  0
  4  3  1  0
  5  4  2  0
  6  5  1  0
  6  7  2  0
  7  2  1  0
 10  5  1  0
 11  6  1  0
 12 11  1  0
 13 14  1  0
 13 12  2  0
 14 19  1  0
 15 14  1  0
 15 16  2  0
 16 17  1  0
 17 22  1  0
 17 18  2  0
 18 23  1  0
 19 11  2  0
 19 18  1  0
 20 12  1  0
 21 16  1  0
 24 25  1  0
 25 30  1  0
 25 26  2  0
 26 31  1  0
 27  1  1  0
 27 26  1  0
 28 27  2  0
 29 28  1  0
 29 24  2  0
 32 28  1  0
 33 29  1  0
 34 35  1  0
 34 40  1  0
 36 34  1  0
 37 36  1  0
 38 36  1  0
 39 36  1  0
 40 43  1  0
 40 42  1  0
 41 40  1  0
M  END
>  <minimizedAffinity>  (89) 
-9.63139915

$$$$

     RDKit          3D

 48 48  0  0  1  0  0  0  0  0999 V2000
  -12.2900  -15.8810   36.8060 C   0  0  0  0  0  0  0  0  0  0  0  0
  -10.8850  -16.0840   36.3230 C   0  0  0  0  0  0  0  0  0  0  0  0
  -10.8010  -15.5820   34.9120 N   0  0  0  0  0  0  0  0  0  0  0  0
  -12.1560  -15.0680   34.5220 N   0  0  0  0  0  0  0  0  0  0  0  0
  -12.6700  -14.4560   33.2530 C   0  0  0  0  0  0  0  0  0  0  0  0
  -14.1040  -14.0280   33.1540 C   0  0  0  0  0  0  0  0  0  0  0  0
  -15.0250  -14.2130   34.3240 C   0  0  0  0  0  0  0  0  0  0  0  0
  -14.5100  -14.8250   35.5930 C   0  0  0  0  0  0  0  0  0  0  0  0
  -13.0760  -15.2530   35.6920 C   0  0  0  0  0  0  0  0  0  0  0  0
  -12.0370  -14.3280   32.4480 H   0  0  0  0  0  0  0  0  0  0  0  0
  -16.0120  -13.9190   34.2560 H   0  0  0  0  0  0  0  0  0  0  0  0
  -15.1440  -14.9520   36.3980 H   0  0  0  0  0  0  0  0  0  0  0  0
   -9.7600  -16.6840   37.1130 C   0  0  0  0  0  0  0  0  0  0  0  0
   -8.6950  -15.8010   37.6920 C   0  0  0  0  0  0  0  0  0  0  0  0
   -7.5700  -16.4010   38.4820 C   0  0  0  0  0  0  0  0  0  0  0  0
   -7.5100  -17.8850   38.6920 C   0  0  0  0  0  0  0  0  0  0  0  0
   -6.3850  -18.4850   39.4820 F   0  0  0  0  0  0  0  0  0  0  0  0
   -8.5750  -18.7680   38.1130 C   0  0  0  0  0  0  0  0  0  0  0  0
   -9.7000  -18.1680   37.3240 C   0  0  0  0  0  0  0  0  0  0  0  0
   -8.7360  -14.7790   37.5470 H   0  0  0  0  0  0  0  0  0  0  0  0
   -6.8370  -15.7930   38.8800 H   0  0  0  0  0  0  0  0  0  0  0  0
   -8.5330  -19.7890   38.2590 H   0  0  0  0  0  0  0  0  0  0  0  0
  -10.4330  -18.7760   36.9250 H   0  0  0  0  0  0  0  0  0  0  0  0
  -15.8940  -18.1660   39.7690 N   0  0  0  0  0  2  0  0  0  0  0  0
  -14.6200  -17.3850   39.6440 C   0  0  0  0  0  0  0  0  0  0  0  0
  -13.8740  -16.9640   40.8750 N   0  0  0  0  0  0  0  0  0  0  0  0
  -12.6000  -16.1830   40.7500 C   0  0  0  0  0  0  0  0  0  0  0  0
  -12.0720  -15.8220   39.3940 C   0  0  0  0  0  0  0  0  0  0  0  0
  -12.8180  -16.2420   38.1620 C   0  0  0  0  0  3  0  0  0  0  0  0
  -14.0920  -17.0230   38.2870 N   0  0  0  0  0  0  0  0  0  0  0  0
  -16.3840  -18.4420   38.9610 H   0  0  0  0  0  0  0  0  0  0  0  0
  -12.0860  -15.8940   41.5970 H   0  0  0  0  0  0  0  0  0  0  0  0
  -11.1950  -15.2840   39.3070 H   0  0  0  0  0  0  0  0  0  0  0  0
  -16.4230  -18.5280   41.1260 C   0  0  0  0  0  2  0  0  0  0  0  0
  -15.7460  -18.8010   41.9080 H   0  0  0  0  0  0  0  0  0  0  0  0
  -15.3690  -18.5430   40.9410 H   0  0  0  0  0  0  0  0  0  0  0  0
  -17.9000  -18.5060   41.3860 C   0  0  0  0  0  2  0  0  0  0  0  0
  -18.2950  -18.9690   42.2660 H   0  0  0  0  0  0  0  0  0  0  0  0
  -17.2400  -18.9850   42.0810 H   0  0  0  0  0  0  0  0  0  0  0  0
  -18.8230  -17.8360   40.4120 C   0  0  0  0  0  3  0  0  0  0  0  0
  -19.4780  -17.0580   40.7430 H   0  0  0  0  0  0  0  0  0  0  0  0
  -18.8190  -17.5360   41.4380 H   0  0  0  0  0  0  0  0  0  0  0  0
  -18.8270  -18.2590   38.9720 O   0  0  0  0  0  0  0  0  0  0  0  0
  -19.4250  -17.8250   38.3420 H   0  0  0  0  0  0  0  0  0  0  0  0
  -14.6190  -13.4160   31.8850 C   0  0  0  0  0  0  0  0  0  0  0  0
  -15.1330  -12.8040   30.6160 F   0  0  0  0  0  0  0  0  0  0  0  0
  -16.0150  -13.4570   32.4310 F   0  0  0  0  0  0  0  0  0  0  0  0
  -13.2220  -13.3750   31.3390 F   0  0  0  0  0  0  0  0  0  0  0  0
  2  1  1  0
  2 13  1  0
  3  2  2  0
  4  3  1  0
  4  9  1  0
  5  4  1  0
  6  5  2  0
  6  7  1  0
  7  8  2  0
  8  9  1  0
  8 12  1  0
  9  1  2  0
 10  5  1  0
 11  7  1  0
 13 19  2  0
 13 14  1  0
 14 15  2  0
 15 16  1  0
 15 21  1  0
 16 17  1  0
 18 22  1  0
 18 16  2  0
 19 18  1  0
 20 14  1  0
 23 19  1  0
 25 24  1  0
 25 26  2  0
 27 26  1  0
 27 32  1  0
 28 27  2  0
 29  1  1  0
 29 30  1  0
 29 28  1  0
 30 25  2  0
 31 24  1  0
 33 28  1  0
 34 35  1  0
 36 34  1  0
 37 39  1  0
 37 38  1  0
 40 41  1  0
 40 42  1  0
 43 40  1  0
 44 43  1  0
 45 47  1  0
 45  6  1  0
 46 45  1  0
 48 45  1  0
M  END
>  <minimizedAffinity>  (90) 
-10.5380268

$$$$

     RDKit          3D

 30 32  0  0  0  0  0  0  0  0999 V2000
  -10.0050  -15.8360   35.8830 N   0  0  0  0  0  0  0  0  0  0  0  0
  -11.4930  -15.7870   36.0610 C   0  0  0  0  0  0  0  0  0  0  0  0
  -12.4640  -15.0650   35.1740 N   0  0  0  0  0  0  0  0  0  0  0  0
  -13.8430  -15.2830   35.7220 C   0  0  0  0  0  0  0  0  0  0  0  0
  -13.7250  -16.1390   36.9470 C   0  0  0  0  0  0  0  0  0  0  0  0
  -12.2720  -16.4510   37.1570 O   0  0  0  0  0  0  0  0  0  0  0  0
   -9.5830  -15.3660   35.1270 H   0  0  0  0  0  0  0  0  0  0  0  0
  -14.7190  -14.9100   35.3260 H   0  0  0  0  0  0  0  0  0  0  0  0
   -7.4640  -18.1350   38.8000 C   0  0  0  0  0  0  0  0  0  0  0  0
   -8.3670  -18.8670   37.8520 C   0  0  0  0  0  0  0  0  0  0  0  0
   -9.2130  -18.1010   36.8800 C   0  0  0  0  0  0  0  0  0  0  0  0
   -9.1580  -16.6020   36.8550 C   0  0  0  0  0  0  0  0  0  0  0  0
   -8.2550  -15.8700   37.8030 C   0  0  0  0  0  0  0  0  0  0  0  0
   -7.4090  -16.6360   38.7760 C   0  0  0  0  0  0  0  0  0  0  0  0
   -6.8820  -18.6620   39.4690 H   0  0  0  0  0  0  0  0  0  0  0  0
   -8.4050  -19.8990   37.8690 H   0  0  0  0  0  0  0  0  0  0  0  0
   -9.8340  -18.6050   36.2270 H   0  0  0  0  0  0  0  0  0  0  0  0
   -8.2170  -14.8390   37.7860 H   0  0  0  0  0  0  0  0  0  0  0  0
   -6.7880  -16.1320   39.4280 H   0  0  0  0  0  0  0  0  0  0  0  0
  -14.8600  -16.6030   37.8120 C   0  0  0  0  0  0  0  0  0  0  0  0
  -16.2760  -16.3550   37.3870 C   0  0  0  0  0  0  0  0  0  0  0  0
  -17.4110  -16.8180   38.2520 C   0  0  0  0  0  0  0  0  0  0  0  0
  -17.1280  -17.5300   39.5410 C   0  0  0  0  0  0  0  0  0  0  0  0
  -15.7110  -17.7780   39.9670 C   0  0  0  0  0  0  0  0  0  0  0  0
  -14.5770  -17.3140   39.1010 C   0  0  0  0  0  0  0  0  0  0  0  0
  -16.4700  -15.8650   36.5000 H   0  0  0  0  0  0  0  0  0  0  0  0
  -18.3860  -16.6470   37.9590 H   0  0  0  0  0  0  0  0  0  0  0  0
  -17.9100  -17.8490   40.1370 H   0  0  0  0  0  0  0  0  0  0  0  0
  -15.5170  -18.2680   40.8550 H   0  0  0  0  0  0  0  0  0  0  0  0
  -13.6020  -17.4850   39.3940 H   0  0  0  0  0  0  0  0  0  0  0  0
  1  2  1  0
  1 12  1  0
  2  6  1  0
  3  4  1  0
  3  2  2  0
  4  5  2  0
  5  6  1  0
  5 20  1  0
  7  1  1  0
  8  4  1  0
  9 15  1  0
 10 16  1  0
 10  9  2  0
 11 10  1  0
 12 11  2  0
 12 13  1  0
 13 14  2  0
 14  9  1  0
 14 19  1  0
 17 11  1  0
 18 13  1  0
 20 25  1  0
 21 20  2  0
 21 22  1  0
 22 23  2  0
 23 24  1  0
 23 28  1  0
 24 29  1  0
 25 30  1  0
 25 24  2  0
 26 21  1  0
 27 22  1  0
M  END
>  <minimizedAffinity>  (91) 
-7.4376626

$$$$

     RDKit          3D

 43 43  0  0  0  0  0  0  0  0999 V2000
  -10.2830  -16.6900   38.4410 C   0  0  0  0  0  1  0  0  0  0  0  0
  -11.0220  -16.8330   37.1430 C   0  0  0  0  0  2  0  0  0  0  0  0
  -12.4980  -16.5700   37.0890 C   0  0  0  0  0  0  0  0  0  0  0  0
  -13.2350  -16.1650   38.3310 C   0  0  0  0  0  0  0  0  0  0  0  0
  -12.4950  -16.0220   39.6280 C   0  0  0  0  0  0  0  0  0  0  0  0
  -11.0190  -16.2840   39.6830 C   0  0  0  0  0  0  0  0  0  0  0  0
  -13.4810  -15.6110   40.6820 N   0  0  0  0  0  0  0  0  0  0  0  0
  -14.8300  -15.5000   40.0350 C   0  0  0  0  0  0  0  0  0  0  0  0
  -16.1070  -15.1150   40.7210 O   0  0  0  0  0  0  0  0  0  0  0  0
  -14.6780  -15.8430   38.5830 C   0  0  0  0  0  0  0  0  0  0  0  0
  -15.7760  -15.8590   37.5610 N   0  0  0  0  0  0  0  0  0  0  0  0
  -10.5160  -17.1120   36.2880 H   0  0  0  0  0  0  0  0  0  0  0  0
  -13.0070  -16.6690   36.1960 H   0  0  0  0  0  0  0  0  0  0  0  0
  -10.5100  -16.1860   40.5760 H   0  0  0  0  0  0  0  0  0  0  0  0
  -13.2780  -15.4440   41.6300 H   0  0  0  0  0  0  0  0  0  0  0  0
   -8.8070  -16.9520   38.4950 C   0  0  0  0  0  3  0  0  0  0  0  0
   -9.1680  -15.9720   38.2600 H   0  0  0  0  0  0  0  0  0  0  0  0
   -8.3010  -18.3250   38.8250 C   0  0  0  0  0  0  0  0  0  0  0  0
   -8.9930  -19.1170   39.0220 H   0  0  0  0  0  0  0  0  0  0  0  0
   -7.2480  -18.5120   38.8640 H   0  0  0  0  0  0  0  0  0  0  0  0
   -7.9400  -19.3050   39.0610 H   0  0  0  0  0  0  0  0  0  0  0  0
   -7.8370  -15.8410   38.2200 C   0  0  0  0  0  0  0  0  0  0  0  0
   -6.7840  -16.0290   38.2590 H   0  0  0  0  0  0  0  0  0  0  0  0
   -8.1980  -14.8620   37.9840 H   0  0  0  0  0  0  0  0  0  0  0  0
   -7.1450  -15.0490   38.0230 H   0  0  0  0  0  0  0  0  0  0  0  0
  -15.4710  -16.2240   36.1380 N   0  0  0  0  0  0  0  0  0  0  0  0
  -15.2770  -17.1590   35.9000 H   0  0  0  0  0  0  0  0  0  0  0  0
  -15.4620  -15.1620   35.0780 C   0  0  0  0  0  0  0  0  0  0  0  0
  -16.7530  -14.5610   34.6090 C   0  0  0  0  0  0  0  0  0  0  0  0
  -16.7450  -13.4990   33.5480 C   0  0  0  0  0  0  0  0  0  0  0  0
  -15.4450  -13.0410   32.9570 C   0  0  0  0  0  0  0  0  0  0  0  0
  -14.1530  -13.6430   33.4260 C   0  0  0  0  0  0  0  0  0  0  0  0
  -14.1620  -14.7040   34.4860 C   0  0  0  0  0  0  0  0  0  0  0  0
  -17.6480  -14.8760   35.0160 H   0  0  0  0  0  0  0  0  0  0  0  0
  -17.6330  -13.0850   33.2260 H   0  0  0  0  0  0  0  0  0  0  0  0
  -13.2590  -13.3280   33.0190 H   0  0  0  0  0  0  0  0  0  0  0  0
  -13.2730  -15.1190   34.8090 H   0  0  0  0  0  0  0  0  0  0  0  0
  -15.4360  -11.9800   31.8970 S   0  0  1  0  0  0  0  0  0  0  0  0
  -16.2410  -11.0810   32.7890 O   0  0  0  0  0  0  0  0  0  0  0  0
  -14.6310  -12.8780   31.0040 O   0  0  0  0  0  0  0  0  0  0  0  0
  -15.4270  -10.9180   30.8360 N   0  0  0  0  0  0  0  0  0  0  0  0
  -15.8980  -10.0290   31.0020 H   0  0  0  0  0  0  0  0  0  0  0  0
  -14.9510  -11.0870   29.9510 H   0  0  0  0  0  0  0  0  0  0  0  0
  1  6  1  0
  3  2  1  0
  3  4  2  0
  4 10  1  0
  4  5  1  0
  5  6  2  0
  5  7  1  0
  6 14  1  0
  7 15  1  0
  8  7  1  0
  8  9  2  0
 10  8  1  0
 11 10  2  0
 12  2  1  0
 13  3  1  0
 16 18  1  0
 17 16  1  0
 18 20  1  0
 18 19  1  0
 18 21  1  0
 22 23  1  0
 22 16  1  0
 24 22  1  0
 25 22  1  0
 26 11  1  0
 27 26  1  0
 28 26  1  0
 29 34  1  0
 29 28  1  0
 30 29  2  0
 31 32  2  0
 31 30  1  0
 32 33  1  0
 33 37  1  0
 33 28  2  0
 35 30  1  0
 36 32  1  0
 38 39  2  0
 38 31  1  0
 40 38  2  0
 41 42  1  0
 41 38  1  0
 43 41  1  0
M  END
>  <minimizedAffinity>  (92) 
-9.19225025

$$$$

     RDKit          3D

 35 37  0  0  0  0  0  0  0  0999 V2000
  -11.1620  -16.1120   36.2330 C   0  0  0  0  0  0  0  0  0  0  0  0
  -11.8990  -16.9630   37.2240 C   0  0  0  0  0  0  0  0  0  0  0  0
  -13.3970  -16.9250   37.2770 C   0  0  0  0  0  0  0  0  0  0  0  0
  -14.1590  -16.0370   36.3380 C   0  0  0  0  0  0  0  0  0  0  0  0
  -13.4220  -15.1870   35.3460 C   0  0  0  0  0  0  0  0  0  0  0  0
  -11.9230  -15.2240   35.2940 C   0  0  0  0  0  0  0  0  0  0  0  0
  -14.4360  -14.4160   34.5530 C   0  0  0  0  0  0  0  0  0  0  0  0
  -14.1380  -13.4420   33.4520 C   0  0  0  0  0  0  0  0  0  0  0  0
  -15.7980  -14.7900   35.0540 C   0  0  0  0  0  0  0  0  0  0  0  0
  -17.1030  -14.2560   34.5430 O   0  0  0  0  0  0  0  0  0  0  0  0
  -15.6280  -15.7920   36.1580 N   0  0  0  0  0  0  0  0  0  0  0  0
  -11.3750  -17.5740   37.8710 H   0  0  0  0  0  0  0  0  0  0  0  0
  -13.9050  -17.5110   37.9590 H   0  0  0  0  0  0  0  0  0  0  0  0
  -11.4160  -14.6390   34.6110 H   0  0  0  0  0  0  0  0  0  0  0  0
  -13.1600  -13.2530   33.1810 H   0  0  0  0  0  0  0  0  0  0  0  0
  -16.3530  -16.2150   36.6730 H   0  0  0  0  0  0  0  0  0  0  0  0
  -15.2610  -12.7420   32.7450 C   0  0  0  0  0  0  0  0  0  0  0  0
  -15.8750  -11.5130   33.3460 C   0  0  0  0  0  0  0  0  0  0  0  0
  -16.9980  -10.8130   32.6400 C   0  0  0  0  0  0  0  0  0  0  0  0
  -17.6120   -9.5840   33.2410 Br  0  0  0  0  0  0  0  0  0  0  0  0
  -17.5070  -11.3440   31.3320 C   0  0  0  0  0  0  0  0  0  0  0  0
  -16.8930  -12.5730   30.7310 C   0  0  0  0  0  0  0  0  0  0  0  0
  -17.4010  -13.1040   29.4240 Br  0  0  0  0  0  0  0  0  0  0  0  0
  -15.7690  -13.2730   31.4380 C   0  0  0  0  0  0  0  0  0  0  0  0
  -15.5250  -11.1480   34.2460 H   0  0  0  0  0  0  0  0  0  0  0  0
  -15.3470  -14.1190   31.0240 H   0  0  0  0  0  0  0  0  0  0  0  0
  -18.6300  -10.6450   30.6250 O   0  0  0  0  0  0  0  0  0  0  0  0
  -19.0140   -9.8770   31.0000 H   0  0  0  0  0  0  0  0  0  0  0  0
   -9.6630  -16.1490   36.1800 C   0  0  0  0  0  0  0  0  0  0  0  0
   -8.9690  -16.7540   34.9960 O   0  0  0  0  0  0  0  0  0  0  0  0
   -8.8590  -15.5820   37.3120 O   0  0  0  0  0  0  0  0  0  0  0  0
   -8.3240  -16.4900   38.3800 C   0  0  0  0  0  0  0  0  0  0  0  0
   -7.7500  -16.0850   39.1880 H   0  0  0  0  0  0  0  0  0  0  0  0
   -8.5170  -17.5410   38.3350 H   0  0  0  0  0  0  0  0  0  0  0  0
   -7.9430  -17.1370   39.1430 H   0  0  0  0  0  0  0  0  0  0  0  0
  1  2  1  0
  2  3  2  0
  2 12  1  0
  3 13  1  0
  4  3  1  0
  5  4  2  0
  6  5  1  0
  6  1  2  0
  7  9  1  0
  7  5  1  0
  8  7  2  0
  9 11  1  0
 10  9  2  0
 11  4  1  0
 11 16  1  0
 14  6  1  0
 15  8  1  0
 17 18  1  0
 17  8  1  0
 18 25  1  0
 19 20  1  0
 19 18  2  0
 21 19  1  0
 22 21  2  0
 22 24  1  0
 23 22  1  0
 24 17  2  0
 26 24  1  0
 27 28  1  0
 27 21  1  0
 29  1  1  0
 29 31  1  0
 30 29  2  0
 31 32  1  0
 32 35  1  0
 32 33  1  0
 34 32  1  0
M  END
>  <minimizedAffinity>  (93) 
-7.62284422

$$$$

     RDKit          3D

 39 38  0  0  0  0  0  0  0  0999 V2000
  -12.5560  -15.0970   35.0200 C   0  0  0  0  0  0  0  0  0  0  0  0
  -11.9800  -14.4800   33.7800 C   0  0  0  0  0  0  0  0  0  0  0  0
  -12.8730  -13.7530   32.8190 C   0  0  0  0  0  0  0  0  0  0  0  0
  -14.3430  -13.6430   33.0980 C   0  0  0  0  0  0  0  0  0  0  0  0
  -15.4630  -12.9930   32.3400 C   0  0  0  0  0  0  0  0  0  0  0  0
  -15.3360  -12.2560   31.0400 N   0  0  0  0  0  0  0  0  0  0  0  0
  -16.5510  -11.6550   30.3970 C   0  0  0  0  0  2  0  0  0  0  0  0
  -17.8920  -11.7910   31.0550 O   0  0  0  0  0  1  0  0  0  0  0  0
  -16.7310  -13.2080   33.1120 N   0  0  0  0  0  0  0  0  0  0  0  0
  -16.3950  -13.9920   34.3460 N   0  0  0  0  0  0  0  0  0  0  0  0
  -14.9200  -14.2600   34.3380 C   0  0  0  0  0  0  0  0  0  0  0  0
  -14.0260  -14.9870   35.2990 N   0  0  0  0  0  0  0  0  0  0  0  0
  -10.9690  -14.5550   33.5880 H   0  0  0  0  0  0  0  0  0  0  0  0
  -12.4770  -13.3280   31.9660 H   0  0  0  0  0  0  0  0  0  0  0  0
  -14.4550  -12.1680   30.6080 H   0  0  0  0  0  0  0  0  0  0  0  0
  -17.0320  -14.2790   35.0400 H   0  0  0  0  0  0  0  0  0  0  0  0
   -9.8760  -17.2780   37.9020 C   0  0  0  0  0  0  0  0  0  0  0  0
   -9.2870  -16.5790   36.7130 C   0  0  0  0  0  0  0  0  0  0  0  0
  -10.1810  -15.8520   35.7520 C   0  0  0  0  0  0  0  0  0  0  0  0
  -11.6630  -15.8240   35.9810 C   0  0  0  0  0  0  0  0  0  0  0  0
  -12.2520  -16.5230   37.1700 C   0  0  0  0  0  0  0  0  0  0  0  0
  -11.3580  -17.2500   38.1310 C   0  0  0  0  0  0  0  0  0  0  0  0
   -8.2670  -16.5980   36.5560 H   0  0  0  0  0  0  0  0  0  0  0  0
   -9.7760  -15.3710   34.9340 H   0  0  0  0  0  0  0  0  0  0  0  0
  -13.2720  -16.5040   37.3270 H   0  0  0  0  0  0  0  0  0  0  0  0
  -11.7630  -17.7310   38.9490 H   0  0  0  0  0  0  0  0  0  0  0  0
   -8.9830  -18.0050   38.8630 O   0  0  0  0  0  0  0  0  0  0  0  0
   -7.8070  -18.7840   38.3520 C   0  0  0  0  0  0  0  0  0  0  0  0
   -7.6060  -18.8210   37.3010 H   0  0  0  0  0  0  0  0  0  0  0  0
   -7.1700  -19.3030   39.0370 H   0  0  0  0  0  0  0  0  0  0  0  0
   -6.9680  -19.3390   37.9870 H   0  0  0  0  0  0  0  0  0  0  0  0
  -16.4250  -10.9190   29.0960 C   0  0  0  0  0 15  0  0  0  0  0  0
  -16.0620   -9.6780   28.3360 C   0  0  0  0  0  3  0  0  0  0  0  0
  -16.5680  -10.8850   27.6030 C   0  0  0  0  0  2  0  0  0  0  0  0
  -16.3340  -10.3940   28.1680 H   0  0  0  0  0  0  0  0  0  0  0  0
  -15.7050   -8.6700   28.3250 H   0  0  0  0  0  0  0  0  0  0  0  0
  -16.0680   -9.3930   27.3040 H   0  0  0  0  0  0  0  0  0  0  0  0
  -16.8350  -11.3680   26.6870 H   0  0  0  0  0  0  0  0  0  0  0  0
  -16.8870  -11.8660   27.8900 H   0  0  0  0  0  0  0  0  0  0  0  0
  1 12  1  0
  1 20  1  0
  2  1  2  0
  3  4  2  0
  3  2  1  0
  4 11  1  0
  5  4  1  0
  5  9  2  0
  6  5  1  0
  7  6  1  0
  7  8  1  0
  9 10  1  0
 10 16  1  0
 11 10  1  0
 11 12  2  0
 13  2  1  0
 14  3  1  0
 15  6  1  0
 17 22  1  0
 17 27  1  0
 18 17  2  0
 19 20  2  0
 19 18  1  0
 20 21  1  0
 21 25  1  0
 21 22  2  0
 22 26  1  0
 23 18  1  0
 24 19  1  0
 28 27  1  0
 28 30  1  0
 29 28  1  0
 31 28  1  0
 34 39  1  0
 35 33  1  0
 36 33  1  0
 37 33  1  0
 38 34  1  0
M  END
>  <minimizedAffinity>  (94) 
-8.95731449

$$$$

     RDKit          3D

 59 57  0  0  0  0  0  0  0  0999 V2000
  -17.3650  -14.4850   34.7850 C   0  0  0  0  0  0  0  0  0  0  0  0
  -17.4880  -15.2570   36.0650 C   0  0  0  0  0  0  0  0  0  0  0  0
  -18.9470  -15.4150   36.3730 N   0  0  0  0  0  0  0  0  0  0  0  0
  -19.7260  -14.7400   35.2830 C   0  0  0  0  0  0  0  0  0  0  0  0
  -18.7490  -14.1660   34.3010 N   0  0  0  0  0  0  0  0  0  0  0  0
  -20.7550  -14.6820   35.2190 H   0  0  0  0  0  0  0  0  0  0  0  0
  -19.0930  -13.4050   33.0560 C   0  0  0  0  0  2  0  0  0  0  0  0
  -19.4500  -11.9510   33.1380 C   0  0  0  0  0  2  0  0  0  0  0  0
  -19.7950  -11.1910   31.8910 C   0  0  0  0  0  2  0  0  0  0  0  0
  -19.7820  -11.8860   30.5630 N   0  0  0  0  0  1  0  0  0  0  0  0
  -19.4250  -13.3400   30.4800 C   0  0  0  0  0  2  0  0  0  0  0  0
  -19.0810  -14.1000   31.7260 C   0  0  0  0  0  2  0  0  0  0  0  0
  -19.3390  -12.8640   32.1660 H   0  0  0  0  0  0  0  0  0  0  0  0
  -19.4590  -11.4550   34.0860 H   0  0  0  0  0  0  0  0  0  0  0  0
  -19.7050  -10.9130   33.1970 H   0  0  0  0  0  0  0  0  0  0  0  0
  -20.0490  -10.1540   31.9510 H   0  0  0  0  0  0  0  0  0  0  0  0
  -20.0400  -10.6490   31.0030 H   0  0  0  0  0  0  0  0  0  0  0  0
  -20.0160  -11.3690   29.7150 H   0  0  0  0  0  0  0  0  0  0  0  0
  -19.4170  -13.8350   29.5310 H   0  0  0  0  0  0  0  0  0  0  0  0
  -19.1710  -14.3780   30.4200 H   0  0  0  0  0  0  0  0  0  0  0  0
  -18.8260  -15.1370   31.6670 H   0  0  0  0  0  0  0  0  0  0  0  0
  -18.8350  -14.6420   32.6160 H   0  0  0  0  0  0  0  0  0  0  0  0
  -16.3500  -15.7790   36.8920 C   0  0  0  0  0  0  0  0  0  0  0  0
  -16.0380  -17.2470   36.8960 C   0  0  0  0  0  0  0  0  0  0  0  0
  -14.9010  -17.7680   37.7230 C   0  0  0  0  0  0  0  0  0  0  0  0
  -14.0760  -16.8240   38.5460 C   0  0  0  0  0  0  0  0  0  0  0  0
  -12.9390  -17.3470   39.3730 F   0  0  0  0  0  0  0  0  0  0  0  0
  -14.3880  -15.3560   38.5420 C   0  0  0  0  0  0  0  0  0  0  0  0
  -15.5250  -14.8350   37.7150 C   0  0  0  0  0  0  0  0  0  0  0  0
  -16.6060  -17.8960   36.3300 H   0  0  0  0  0  0  0  0  0  0  0  0
  -14.6870  -18.7780   37.7260 H   0  0  0  0  0  0  0  0  0  0  0  0
  -13.8210  -14.7070   39.1080 H   0  0  0  0  0  0  0  0  0  0  0  0
  -15.7400  -13.8250   37.7120 H   0  0  0  0  0  0  0  0  0  0  0  0
  -13.7000  -14.7210   33.2810 C   0  0  0  0  0  0  0  0  0  0  0  0
  -13.5200  -13.3290   32.7520 N   0  0  0  0  0  0  0  0  0  0  0  0
  -14.6220  -12.3220   32.9000 C   0  0  0  0  0  3  0  0  0  0  0  0
  -15.9040  -12.7080   33.5780 C   0  0  0  0  0  0  0  0  0  0  0  0
  -16.0830  -14.1000   34.1070 C   0  0  0  0  0  0  0  0  0  0  0  0
  -14.9820  -15.1060   33.9590 N   0  0  0  0  0  0  0  0  0  0  0  0
  -14.4990  -11.3640   32.5360 H   0  0  0  0  0  0  0  0  0  0  0  0
  -16.6620  -12.0150   33.6800 H   0  0  0  0  0  0  0  0  0  0  0  0
  -12.5980  -15.7280   33.1320 O   0  0  0  0  0  0  0  0  0  0  0  0
   -9.7190  -16.4300   36.5190 C   0  0  0  0  0  0  0  0  0  0  0  0
  -11.1080  -15.9390   36.8040 C   0  0  0  0  0  0  0  0  0  0  0  0
  -12.0680  -15.7060   35.6750 C   0  0  0  0  0  0  0  0  0  0  0  0
  -11.6390  -15.9620   34.2610 C   0  0  0  0  0  0  0  0  0  0  0  0
  -10.2500  -16.4520   33.9760 C   0  0  0  0  0  0  0  0  0  0  0  0
   -9.2900  -16.6860   35.1050 C   0  0  0  0  0  0  0  0  0  0  0  0
  -11.4030  -15.7630   37.7770 H   0  0  0  0  0  0  0  0  0  0  0  0
  -13.0230  -15.3680   35.8720 H   0  0  0  0  0  0  0  0  0  0  0  0
   -9.9550  -16.6280   33.0020 H   0  0  0  0  0  0  0  0  0  0  0  0
   -8.3350  -17.0230   34.9080 H   0  0  0  0  0  0  0  0  0  0  0  0
   -8.7600  -16.6640   37.6480 S   0  0  1  0  0  0  0  0  0  0  0  0
   -9.6310  -17.7720   38.1590 O   0  0  0  0  0  0  0  0  0  0  0  0
   -7.8880  -15.5550   37.1370 O   0  0  0  0  0  0  0  0  0  0  0  0
   -7.8000  -16.8970   38.7770 C   0  0  0  0  0  0  0  0  0  0  0  0
   -6.9200  -16.2960   38.8640 H   0  0  0  0  0  0  0  0  0  0  0  0
   -7.9970  -17.6660   39.4950 H   0  0  0  0  0  0  0  0  0  0  0  0
   -7.1160  -17.0640   39.5820 H   0  0  0  0  0  0  0  0  0  0  0  0
  1  2  2  0
  2  3  1  0
  2 23  1  0
  4  3  2  0
  5  1  1  0
  5  4  1  0
  6  4  1  0
  7  5  1  0
  8 15  1  0
  8 14  1  0
  9 16  1  0
 12 22  1  0
 13  7  1  0
 17  9  1  0
 18 10  1  0
 19 11  1  0
 20 11  1  0
 21 12  1  0
 23 24  2  0
 23 29  1  0
 24 25  1  0
 25 31  1  0
 25 26  2  0
 26 27  1  0
 28 26  1  0
 28 32  1  0
 29 28  2  0
 30 24  1  0
 33 29  1  0
 34 39  2  0
 35 36  1  0
 35 34  2  0
 36 37  1  0
 37 41  1  0
 37 38  2  0
 38  1  1  0
 39 38  1  0
 40 36  1  0
 42 34  1  0
 42 46  1  0
 43 44  1  0
 43 53  1  0
 44 49  1  0
 45 50  1  0
 45 44  2  0
 46 45  1  0
 47 46  2  0
 47 48  1  0
 48 43  2  0
 51 47  1  0
 52 48  1  0
 53 54  2  0
 53 56  1  0
 55 53  2  0
 56 57  1  0
 56 58  1  0
 56 59  1  0
M  END
>  <minimizedAffinity>  (95) 
-8.25294209

$$$$

     RDKit          3D

 47 48  0  0  0  0  0  0  0  0999 V2000
  -10.8250  -15.8810   35.3290 C   0  0  0  0  0  0  0  0  0  0  0  0
   -9.5460  -16.6190   35.0660 C   0  0  0  0  0  0  0  0  0  0  0  0
   -8.9150  -17.4380   36.1530 C   0  0  0  0  0  0  0  0  0  0  0  0
   -9.5640  -17.5200   37.5030 C   0  0  0  0  0  0  0  0  0  0  0  0
  -10.8430  -16.7820   37.7660 C   0  0  0  0  0  0  0  0  0  0  0  0
  -11.4740  -15.9630   36.6790 C   0  0  0  0  0  0  0  0  0  0  0  0
   -9.0990  -16.5620   34.1370 H   0  0  0  0  0  0  0  0  0  0  0  0
   -8.0350  -17.9460   35.9710 H   0  0  0  0  0  0  0  0  0  0  0  0
  -12.3540  -15.4550   36.8610 H   0  0  0  0  0  0  0  0  0  0  0  0
  -11.4920  -16.8640   39.1160 N   0  0  0  0  0  0  0  0  0  0  0  0
  -12.9700  -16.6450   39.2520 C   0  0  0  0  0  0  0  0  0  0  0  0
  -13.7540  -16.6950   40.5300 N   0  0  0  0  0  0  0  0  0  0  0  0
  -15.1920  -16.4180   40.2020 C   0  0  0  0  0  0  0  0  0  0  0  0
  -15.2960  -16.1970   38.7220 C   0  0  0  0  0  0  0  0  0  0  0  0
  -13.9230  -16.3370   38.1350 O   0  0  0  0  0  0  0  0  0  0  0  0
  -10.9480  -17.0620   39.9120 H   0  0  0  0  0  0  0  0  0  0  0  0
  -15.9720  -16.3850   40.8770 H   0  0  0  0  0  0  0  0  0  0  0  0
  -16.5520  -15.8890   37.9630 C   0  0  0  0  0  0  0  0  0  0  0  0
  -17.8690  -15.8420   38.6790 C   0  0  0  0  0  0  0  0  0  0  0  0
  -19.1250  -15.5340   37.9200 C   0  0  0  0  0  0  0  0  0  0  0  0
  -19.0650  -15.2740   36.4440 C   0  0  0  0  0  0  0  0  0  0  0  0
  -17.7480  -15.3220   35.7270 C   0  0  0  0  0  0  0  0  0  0  0  0
  -16.4920  -15.6290   36.4870 C   0  0  0  0  0  0  0  0  0  0  0  0
  -17.9110  -16.0210   39.6950 H   0  0  0  0  0  0  0  0  0  0  0  0
  -20.0310  -15.5020   38.4130 H   0  0  0  0  0  0  0  0  0  0  0  0
  -19.9290  -15.0630   35.9220 H   0  0  0  0  0  0  0  0  0  0  0  0
  -15.5850  -15.6620   35.9930 H   0  0  0  0  0  0  0  0  0  0  0  0
  -17.6880  -15.0610   34.2510 O   0  0  0  0  0  0  0  0  0  0  0  0
  -17.3880  -13.6820   33.7440 C   0  0  0  0  0  0  0  0  0  0  0  0
  -17.2170  -12.8830   34.4360 H   0  0  0  0  0  0  0  0  0  0  0  0
  -17.3450  -13.4960   32.6920 H   0  0  0  0  0  0  0  0  0  0  0  0
  -17.1740  -12.6970   33.3830 H   0  0  0  0  0  0  0  0  0  0  0  0
  -11.4560  -15.0620   34.2430 S   0  0  0  0  0  0  0  0  0  0  0  0
  -12.1800  -14.2500   35.2750 O   0  0  0  0  0  0  0  0  0  0  0  0
  -10.7310  -15.8730   33.2100 O   0  0  0  0  0  1  0  0  0  0  0  0
  -12.0860  -14.2420   33.1560 C   0  0  0  0  0  3  0  0  0  0  0  0
  -11.4740  -13.6420   32.5150 H   0  0  0  0  0  0  0  0  0  0  0  0
  -11.0240  -14.2270   33.2900 H   0  0  0  0  0  0  0  0  0  0  0  0
  -13.5740  -14.2630   32.9680 C   0  0  0  0  0  0  0  0  0  0  0  0
  -14.0240  -13.6790   32.1930 H   0  0  0  0  0  0  0  0  0  0  0  0
  -14.1860  -14.8630   33.6090 H   0  0  0  0  0  0  0  0  0  0  0  0
  -14.6360  -14.2780   32.8340 H   0  0  0  0  0  0  0  0  0  0  0  0
   -8.9340  -18.3400   38.5890 O   0  0  0  0  0  0  0  0  0  0  0  0
   -7.5880  -18.9660   38.3720 C   0  0  0  0  0  0  0  0  0  0  0  0
   -7.1390  -19.5510   39.1470 H   0  0  0  0  0  0  0  0  0  0  0  0
   -7.0780  -18.8280   37.4410 H   0  0  0  0  0  0  0  0  0  0  0  0
   -6.6280  -19.4130   38.2160 H   0  0  0  0  0  0  0  0  0  0  0  0
  1  6  1  0
  2  1  2  0
  2  3  1  0
  3  4  2  0
  4  5  1  0
  4 43  1  0
  5 10  1  0
  6  9  1  0
  6  5  2  0
  7  2  1  0
  8  3  1  0
 10 11  1  0
 10 16  1  0
 11 12  2  0
 13 12  1  0
 13 17  1  0
 14 13  2  0
 15 14  1  0
 15 11  1  0
 18 19  1  0
 18 14  1  0
 19 24  1  0
 20 25  1  0
 20 19  2  0
 21 20  1  0
 22 21  2  0
 22 23  1  0
 23 18  2  0
 26 21  1  0
 27 23  1  0
 28 22  1  0
 29 28  1  0
 29 30  1  0
 31 29  1  0
 32 29  1  0
 33 35  1  0
 33 34  2  0
 33  1  1  0
 36 38  1  0
 37 36  1  0
 39 36  1  0
 39 41  1  0
 40 39  1  0
 42 39  1  0
 44 43  1  0
 44 45  1  0
 46 44  1  0
 47 44  1  0
M  END
>  <minimizedAffinity>  (96) 
-9.37151527

$$$$

     RDKit          3D

 49 52  0  0  0  0  0  0  0  0999 V2000
  -14.4590  -14.9550   34.7620 N   0  0  0  0  0  0  0  0  0  0  0  0
  -15.3690  -14.1270   33.9060 C   0  0  0  0  0  0  0  0  0  0  0  0
  -14.9500  -13.2480   32.7650 C   0  0  0  0  0  0  0  0  0  0  0  0
  -13.5450  -13.0450   32.2790 O   0  0  0  0  0  0  0  0  0  0  0  0
  -16.1810  -12.6090   32.1930 N   0  0  0  0  0  0  0  0  0  0  0  0
  -17.3620  -13.0920   32.9820 C   0  0  0  0  0  0  0  0  0  0  0  0
  -18.8290  -12.8000   32.8730 C   0  0  0  0  0  0  0  0  0  0  0  0
  -19.7950  -13.4450   33.8220 C   0  0  0  0  0  0  0  0  0  0  0  0
  -19.2940  -14.3830   34.8800 C   0  0  0  0  0  0  0  0  0  0  0  0
  -17.8270  -14.6750   34.9890 C   0  0  0  0  0  0  0  0  0  0  0  0
  -16.8610  -14.0300   34.0400 C   0  0  0  0  0  0  0  0  0  0  0  0
  -16.2090  -11.9820   31.4350 H   0  0  0  0  0  0  0  0  0  0  0  0
  -19.1740  -12.1550   32.1450 H   0  0  0  0  0  0  0  0  0  0  0  0
  -20.8050  -13.2430   33.7480 H   0  0  0  0  0  0  0  0  0  0  0  0
  -19.9590  -14.8270   35.5330 H   0  0  0  0  0  0  0  0  0  0  0  0
  -17.3250  -15.6130   36.0470 C   0  0  0  0  0  0  0  0  0  0  0  0
  -17.2020  -16.6530   35.8260 H   0  0  0  0  0  0  0  0  0  0  0  0
  -16.9680  -16.2820   36.8020 H   0  0  0  0  0  0  0  0  0  0  0  0
  -16.9970  -15.0940   37.4150 C   0  0  0  0  0  0  0  0  0  0  0  0
  -17.4400  -14.1830   37.7630 H   0  0  0  0  0  0  0  0  0  0  0  0
  -16.7620  -14.7230   38.3910 H   0  0  0  0  0  0  0  0  0  0  0  0
  -16.0470  -15.8490   38.2960 C   0  0  0  0  0  0  0  0  0  0  0  0
  -15.9340  -17.3400   38.1730 C   0  0  0  0  0  0  0  0  0  0  0  0
  -14.9840  -18.0960   39.0540 C   0  0  0  0  0  0  0  0  0  0  0  0
  -14.1470  -17.3610   40.0590 N   0  0  0  0  0  0  0  0  0  0  0  0
  -14.2600  -15.8710   40.1820 C   0  0  0  0  0  0  0  0  0  0  0  0
  -15.2100  -15.1150   39.3010 C   0  0  0  0  0  0  0  0  0  0  0  0
  -16.5100  -17.8460   37.4820 H   0  0  0  0  0  0  0  0  0  0  0  0
  -14.9070  -19.1220   38.9690 H   0  0  0  0  0  0  0  0  0  0  0  0
  -13.6840  -15.3650   40.8730 H   0  0  0  0  0  0  0  0  0  0  0  0
  -15.2870  -14.0890   39.3860 H   0  0  0  0  0  0  0  0  0  0  0  0
  -12.9810  -14.9510   34.5070 N   0  0  0  0  0  0  0  0  0  0  0  0
  -12.6210  -14.5070   33.7060 H   0  0  0  0  0  0  0  0  0  0  0  0
  -10.1930  -16.9690   37.4070 C   0  0  0  0  0  0  0  0  0  0  0  0
  -11.6700  -16.9610   37.6680 C   0  0  0  0  0  0  0  0  0  0  0  0
  -12.5990  -16.2890   36.7020 C   0  0  0  0  0  0  0  0  0  0  0  0
  -12.0510  -15.6240   35.4740 C   0  0  0  0  0  0  0  0  0  0  0  0
  -10.5750  -15.6320   35.2120 C   0  0  0  0  0  0  0  0  0  0  0  0
   -9.6450  -16.3050   36.1780 C   0  0  0  0  0  0  0  0  0  0  0  0
  -12.0470  -17.4190   38.5130 H   0  0  0  0  0  0  0  0  0  0  0  0
  -13.6150  -16.2830   36.8820 H   0  0  0  0  0  0  0  0  0  0  0  0
  -10.1980  -15.1750   34.3660 H   0  0  0  0  0  0  0  0  0  0  0  0
   -8.6290  -16.3100   35.9990 H   0  0  0  0  0  0  0  0  0  0  0  0
   -9.2630  -17.6420   38.3720 S   0  0  2  0  0  0  0  0  0  0  0  0
   -9.7390  -16.7290   39.4650 O   0  0  0  0  0  0  0  0  0  0  0  0
   -8.7880  -18.5540   37.2810 O   0  0  0  0  0  0  0  0  0  0  0  0
   -8.3340  -18.3140   39.3390 N   0  0  0  0  0  0  0  0  0  0  0  0
   -8.2980  -18.0040   40.3110 H   0  0  0  0  0  0  0  0  0  0  0  0
   -7.7380  -19.0800   39.0250 H   0  0  0  0  0  0  0  0  0  0  0  0
  2 11  1  0
  2  1  2  0
  3  2  1  0
  4  3  2  0
  5  3  1  0
  5  6  1  0
  6 11  1  0
  7  6  2  0
  7  8  1  0
  8  9  2  0
  9 10  1  0
  9 15  1  0
 10 16  1  0
 11 10  2  0
 12  5  1  0
 13  7  1  0
 14  8  1  0
 16 18  1  0
 16 19  1  0
 17 16  1  0
 19 20  1  0
 19 22  1  0
 19 21  1  0
 22 27  1  0
 23 22  2  0
 23 24  1  0
 24 25  2  0
 25 26  1  0
 26 30  1  0
 27 31  1  0
 27 26  2  0
 28 23  1  0
 29 24  1  0
 32  1  1  0
 32 37  1  0
 33 32  1  0
 34 35  1  0
 34 44  1  0
 35 40  1  0
 36 41  1  0
 36 35  2  0
 37 36  1  0
 38 37  2  0
 38 39  1  0
 39 34  2  0
 42 38  1  0
 43 39  1  0
 44 47  1  0
 44 45  2  0
 46 44  2  0
 47 48  1  0
 49 47  1  0
M  END
>  <minimizedAffinity>  (97) 
-10.1559639

$$$$

     RDKit          3D

 49 52  0  0  0  0  0  0  0  0999 V2000
  -14.4840  -13.3790   32.5050 C   0  0  0  0  0  0  0  0  0  0  0  0
  -15.5480  -13.8300   33.4610 C   0  0  0  0  0  0  0  0  0  0  0  0
  -15.1740  -14.6080   34.6870 C   0  0  0  0  0  0  0  0  0  0  0  0
  -13.7350  -14.9350   34.9580 C   0  0  0  0  0  0  0  0  0  0  0  0
  -13.0680  -15.6820   36.0750 C   0  0  0  0  0  0  0  0  0  0  0  0
  -11.5920  -15.6920   35.8090 C   0  0  0  0  0  0  0  0  0  0  0  0
  -11.3460  -14.9520   34.5280 N   0  0  0  0  0  0  0  0  0  0  0  0
  -12.6710  -14.4840   34.0020 N   0  0  0  0  0  0  0  0  0  0  0  0
  -13.0450  -13.7060   32.7750 C   0  0  0  0  0  0  0  0  0  0  0  0
  -16.5380  -13.6040   33.2750 H   0  0  0  0  0  0  0  0  0  0  0  0
  -15.9060  -14.9180   35.3450 H   0  0  0  0  0  0  0  0  0  0  0  0
  -12.3130  -13.3960   32.1170 H   0  0  0  0  0  0  0  0  0  0  0  0
  -10.5450  -16.3310   36.6730 C   0  0  0  0  0  0  0  0  0  0  0  0
  -10.4380  -15.9560   38.1220 C   0  0  0  0  0  0  0  0  0  0  0  0
   -9.3910  -16.5940   38.9860 C   0  0  0  0  0  0  0  0  0  0  0  0
   -8.4520  -17.6080   38.4020 C   0  0  0  0  0  0  0  0  0  0  0  0
   -7.4050  -18.2460   39.2660 F   0  0  0  0  0  0  0  0  0  0  0  0
   -8.5590  -17.9820   36.9530 C   0  0  0  0  0  0  0  0  0  0  0  0
   -9.6060  -17.3440   36.0890 C   0  0  0  0  0  0  0  0  0  0  0  0
  -11.0840  -15.2590   38.5240 H   0  0  0  0  0  0  0  0  0  0  0  0
   -9.3170  -16.3370   39.9830 H   0  0  0  0  0  0  0  0  0  0  0  0
   -7.9130  -18.6800   36.5510 H   0  0  0  0  0  0  0  0  0  0  0  0
   -9.6800  -17.6020   35.0930 H   0  0  0  0  0  0  0  0  0  0  0  0
  -13.7570  -16.3080   37.2510 C   0  0  0  0  0  0  0  0  0  0  0  0
  -13.4760  -17.7360   37.6110 C   0  0  0  0  0  0  0  0  0  0  0  0
  -14.1650  -18.3630   38.7880 C   0  0  0  0  0  0  0  0  0  0  0  0
  -15.1350  -17.5600   39.6030 N   0  0  0  0  0  0  0  0  0  0  0  0
  -15.4160  -16.1320   39.2430 C   0  0  0  0  0  0  0  0  0  0  0  0
  -16.3860  -15.3300   40.0590 N   0  0  0  0  0  0  0  0  0  0  0  0
  -14.7270  -15.5060   38.0670 N   0  0  0  0  0  0  0  0  0  0  0  0
  -12.8090  -18.2890   37.0500 H   0  0  0  0  0  0  0  0  0  0  0  0
  -13.9710  -19.3460   39.0360 H   0  0  0  0  0  0  0  0  0  0  0  0
  -16.5700  -14.3920   39.8220 H   0  0  0  0  0  0  0  0  0  0  0  0
  -17.0750  -15.9560   41.2350 C   0  0  0  0  0  0  0  0  0  0  0  0
  -16.6000  -15.9580   42.1930 H   0  0  0  0  0  0  0  0  0  0  0  0
  -17.5660  -16.4030   42.0740 H   0  0  0  0  0  0  0  0  0  0  0  0
  -18.4290  -16.5790   41.0670 C   0  0  0  0  0  0  0  0  0  0  0  0
  -19.3070  -16.0360   41.3490 H   0  0  0  0  0  0  0  0  0  0  0  0
  -19.3950  -17.0240   40.9470 H   0  0  0  0  0  0  0  0  0  0  0  0
  -18.5530  -17.9630   40.5020 C   0  0  0  0  0  0  0  0  0  0  0  0
  -18.8260  -18.7780   41.1400 H   0  0  0  0  0  0  0  0  0  0  0  0
  -18.6420  -18.9510   40.1000 H   0  0  0  0  0  0  0  0  0  0  0  0
  -18.2950  -18.2060   39.0450 O   0  0  0  0  0  0  0  0  0  0  0  0
  -18.3750  -19.1000   38.6800 H   0  0  0  0  0  0  0  0  0  0  0  0
  -15.1180  -13.3160   29.9860 N   0  0  0  0  0  0  0  0  0  0  0  0
  -14.8580  -12.6000   31.2780 C   0  0  0  0  0  0  0  0  0  0  0  0
  -14.9730  -11.1060   31.3440 O   0  0  0  0  0  0  0  0  0  0  0  0
  -15.0430  -14.2970   29.9420 H   0  0  0  0  0  0  0  0  0  0  0  0
  -15.3630  -12.8050   29.1820 H   0  0  0  0  0  0  0  0  0  0  0  0
  1  9  2  0
  1  2  1  0
  2  3  2  0
  3  4  1  0
  3 11  1  0
  4  5  2  0
  5 24  1  0
  6  5  1  0
  6 13  1  0
  7  6  2  0
  8  7  1  0
  8  4  1  0
  9  8  1  0
 10  2  1  0
 12  9  1  0
 13 14  1  0
 14 20  1  0
 14 15  2  0
 15 21  1  0
 16 15  1  0
 16 17  1  0
 18 16  2  0
 19 13  2  0
 19 18  1  0
 22 18  1  0
 23 19  1  0
 24 25  1  0
 24 30  2  0
 25 26  2  0
 26 32  1  0
 26 27  1  0
 28 27  2  0
 28 29  1  0
 29 34  1  0
 30 28  1  0
 31 25  1  0
 33 29  1  0
 34 36  1  0
 34 35  1  0
 37 34  1  0
 37 38  1  0
 39 37  1  0
 40 37  1  0
 40 41  1  0
 42 40  1  0
 43 40  1  0
 44 43  1  0
 45 46  1  0
 46 47  2  0
 46  1  1  0
 48 45  1  0
 49 45  1  0
M  END
>  <minimizedAffinity>  (98) 
-10.4120388

$$$$

     RDKit          3D

 51 49  0  0  0  0  0  0  0  0999 V2000
  -11.8710  -16.1850   35.9600 C   0  0  0  0  0  0  0  0  0  0  0  0
  -10.3860  -16.2730   35.7590 C   0  0  0  0  0  0  0  0  0  0  0  0
  -10.0770  -15.7930   34.3720 N   0  0  0  0  0  0  0  0  0  0  0  0
  -11.3700  -15.4100   33.7150 C   0  0  0  0  0  0  0  0  0  0  0  0
  -12.4790  -15.6520   34.6970 N   0  0  0  0  0  0  0  0  0  0  0  0
  -11.4790  -15.0430   32.7570 H   0  0  0  0  0  0  0  0  0  0  0  0
  -12.2610  -16.2010   41.1420 N   0  0  0  0  0  0  0  0  0  0  0  0
  -12.8110  -16.5730   39.7960 C   0  0  0  0  0  0  0  0  0  0  0  0
  -14.1050  -17.3230   39.6960 N   0  0  0  0  0  0  0  0  0  0  0  0
  -14.6550  -17.6950   38.3510 C   0  0  0  0  0  0  0  0  0  0  0  0
  -13.9100  -17.3150   37.1060 C   0  0  0  0  0  0  0  0  0  0  0  0
  -12.6150  -16.5650   37.2060 C   0  0  0  0  0  0  0  0  0  0  0  0
  -12.0660  -16.1930   38.5510 N   0  0  0  0  0  0  0  0  0  0  0  0
  -12.7500  -16.4510   41.9590 H   0  0  0  0  0  0  0  0  0  0  0  0
  -11.4110  -15.7080   41.2070 H   0  0  0  0  0  0  0  0  0  0  0  0
  -15.5460  -18.2110   38.2830 H   0  0  0  0  0  0  0  0  0  0  0  0
  -14.2880  -17.5710   36.1800 H   0  0  0  0  0  0  0  0  0  0  0  0
   -9.3880  -16.7550   36.7680 C   0  0  0  0  0  0  0  0  0  0  0  0
   -8.5510  -15.7660   37.5270 C   0  0  0  0  0  0  0  0  0  0  0  0
   -7.5520  -16.2490   38.5360 C   0  0  0  0  0  0  0  0  0  0  0  0
   -7.3890  -17.7170   38.7880 C   0  0  0  0  0  0  0  0  0  0  0  0
   -6.3900  -18.1990   39.7980 F   0  0  0  0  0  0  0  0  0  0  0  0
   -8.2250  -18.7060   38.0300 C   0  0  0  0  0  0  0  0  0  0  0  0
   -9.2240  -18.2240   37.0200 C   0  0  0  0  0  0  0  0  0  0  0  0
   -8.6630  -14.7560   37.3540 H   0  0  0  0  0  0  0  0  0  0  0  0
   -6.9770  -15.5680   39.0580 H   0  0  0  0  0  0  0  0  0  0  0  0
   -8.1130  -19.7170   38.2040 H   0  0  0  0  0  0  0  0  0  0  0  0
   -9.7990  -18.9040   36.4990 H   0  0  0  0  0  0  0  0  0  0  0  0
  -13.9380  -15.4040   34.4580 C   0  0  0  0  0  0  0  0  0  0  0  0
  -14.6230  -16.2260   34.4330 H   0  0  0  0  0  0  0  0  0  0  0  0
  -14.9800  -15.2270   34.2870 H   0  0  0  0  0  0  0  0  0  0  0  0
  -14.4380  -14.0040   34.2530 C   0  0  0  0  0  0  0  0  0  0  0  0
  -14.9880  -13.5140   35.0290 H   0  0  0  0  0  0  0  0  0  0  0  0
  -14.7950  -13.0070   34.1070 H   0  0  0  0  0  0  0  0  0  0  0  0
  -14.1680  -13.2920   32.9610 C   0  0  0  0  0  0  0  0  0  0  0  0
  -13.1710  -13.2430   32.5760 H   0  0  0  0  0  0  0  0  0  0  0  0
  -13.9740  -12.7840   32.0390 H   0  0  0  0  0  0  0  0  0  0  0  0
  -15.2940  -12.6500   32.2080 N   0  0  0  0  0  2  0  0  0  0  0  0
  -15.6350  -13.1160   30.8240 C   0  0  0  0  0  3  0  0  0  0  0  0
  -16.7620  -12.4720   30.0720 C   0  0  0  0  0  2  0  0  0  0  0  0
  -17.5490  -11.3620   30.7030 O   0  0  0  0  0 15  0  0  0  0  0  0
  -17.2080  -10.8960   32.0880 C   0  0  0  0  0  2  0  0  0  0  0  0
  -16.0810  -11.5390   32.8400 C   0  0  0  0  0  2  0  0  0  0  0  0
  -15.0740  -13.9080   30.3730 H   0  0  0  0  0  0  0  0  0  0  0  0
  -15.8780  -13.4480   29.8370 H   0  0  0  0  0  0  0  0  0  0  0  0
  -17.0040  -12.8060   29.0840 H   0  0  0  0  0  0  0  0  0  0  0  0
  -17.5650  -12.0140   29.5350 H   0  0  0  0  0  0  0  0  0  0  0  0
  -17.7690  -10.1040   32.5390 H   0  0  0  0  0  0  0  0  0  0  0  0
  -16.9650  -10.5630   33.0750 H   0  0  0  0  0  0  0  0  0  0  0  0
  -15.8390  -11.2060   33.8280 H   0  0  0  0  0  0  0  0  0  0  0  0
  -15.2770  -11.9980   33.3770 H   0  0  0  0  0  0  0  0  0  0  0  0
  1 12  1  0
  2  1  2  0
  2 18  1  0
  3  2  1  0
  4  3  2  0
  4  5  1  0
  5  1  1  0
  6  4  1  0
  7 15  1  0
  7 14  1  0
  8  7  1  0
  9  8  2  0
 10  9  1  0
 11 12  1  0
 11 10  2  0
 12 13  2  0
 13  8  1  0
 16 10  1  0
 17 11  1  0
 18 24  2  0
 18 19  1  0
 19 20  2  0
 20 21  1  0
 20 26  1  0
 21 22  1  0
 23 27  1  0
 23 21  2  0
 24 23  1  0
 25 19  1  0
 28 24  1  0
 29  5  1  0
 30 29  1  0
 31 29  1  0
 32 29  1  0
 32 33  1  0
 34 32  1  0
 35 32  1  0
 36 35  1  0
 37 35  1  0
 38 35  1  0
 39 38  1  0
 42 48  1  0
 42 49  1  0
 43 51  1  0
 43 50  1  0
 44 39  1  0
 45 39  1  0
 46 40  1  0
 47 40  1  0
M  END
>  <minimizedAffinity>  (99) 
-10.7389469

$$$$

     RDKit          3D

 49 52  0  0  1  0  0  0  0  0999 V2000
  -10.2880  -15.8780   34.9710 C   0  0  0  0  0  0  0  0  0  0  0  0
  -11.1140  -14.8300   35.6570 C   0  0  0  0  0  0  0  0  0  0  0  0
  -12.2380  -14.1620   34.9220 C   0  0  0  0  0  0  0  0  0  0  0  0
  -12.5370  -14.5430   33.5020 C   0  0  0  0  0  0  0  0  0  0  0  0
  -11.7120  -15.5910   32.8170 C   0  0  0  0  0  0  0  0  0  0  0  0
  -10.5870  -16.2590   33.5520 C   0  0  0  0  0  0  0  0  0  0  0  0
  -10.9080  -14.5680   36.6340 H   0  0  0  0  0  0  0  0  0  0  0  0
  -12.8060  -13.4410   35.3940 H   0  0  0  0  0  0  0  0  0  0  0  0
  -11.9170  -15.8530   31.8400 H   0  0  0  0  0  0  0  0  0  0  0  0
  -10.0190  -16.9800   33.0800 H   0  0  0  0  0  0  0  0  0  0  0  0
  -13.6620  -13.8750   32.7680 N   0  0  0  0  0  0  0  0  0  0  0  0
  -15.0630  -13.9700   33.2950 C   0  0  0  0  0  3  0  0  0  0  0  0
  -15.3390  -14.7320   34.5570 N   0  0  0  0  0  0  0  0  0  0  0  0
  -16.7400  -14.8270   35.0840 C   0  0  0  0  0  0  0  0  0  0  0  0
  -17.8650  -14.1590   34.3500 N   0  0  0  0  0  2  0  0  0  0  0  0
  -17.5880  -13.3970   33.0880 C   0  0  0  0  0  0  0  0  0  0  0  0
  -18.7130  -12.7290   32.3540 C   0  0  0  0  0  0  0  0  0  0  0  0
  -18.4360  -11.9660   31.0920 C   0  0  0  0  0  0  0  0  0  0  0  0
  -17.0350  -11.8720   30.5650 C   0  0  0  0  0  0  0  0  0  0  0  0
  -15.9110  -12.5390   31.2990 C   0  0  0  0  0  0  0  0  0  0  0  0
  -16.1870  -13.3020   32.5610 C   0  0  0  0  0  0  0  0  0  0  0  0
  -13.4800  -13.3740   31.9400 H   0  0  0  0  0  0  0  0  0  0  0  0
  -16.9310  -15.3520   35.9530 H   0  0  0  0  0  0  0  0  0  0  0  0
  -19.6770  -12.7940   32.7170 H   0  0  0  0  0  0  0  0  0  0  0  0
  -19.2100  -11.5070   30.5860 H   0  0  0  0  0  0  0  0  0  0  0  0
  -14.9470  -12.4740   30.9360 H   0  0  0  0  0  0  0  0  0  0  0  0
  -16.7590  -11.1090   29.3030 C   0  0  0  0  0  0  0  0  0  0  0  0
  -17.5150  -11.2340   28.0140 C   0  0  0  0  0  0  0  0  0  0  0  0
  -16.9010  -10.2890   27.0230 C   0  0  0  0  0  0  0  0  0  0  0  0
  -15.7650   -9.5810   27.6990 C   0  0  0  0  0  0  0  0  0  0  0  0
  -15.6770  -10.0880   29.1080 O   0  0  0  0  0  0  0  0  0  0  0  0
  -18.3180  -11.8590   27.8390 H   0  0  0  0  0  0  0  0  0  0  0  0
  -17.2070  -10.1510   26.0470 H   0  0  0  0  0  0  0  0  0  0  0  0
  -15.1530   -8.8710   27.2710 H   0  0  0  0  0  0  0  0  0  0  0  0
   -9.1640  -16.5460   35.7060 O   0  0  0  0  0  1  0  0  0  0  0  0
   -9.4590  -17.4620   36.8570 C   0  0  0  0  0  3  0  0  0  0  0  0
   -8.9240  -18.3840   36.9580 H   0  0  0  0  0  0  0  0  0  0  0  0
   -8.7140  -17.7300   36.1370 H   0  0  0  0  0  0  0  0  0  0  0  0
  -12.5910  -16.3340   39.8840 C   0  0  0  0  0  0  0  0  0  0  0  0
  -11.1570  -15.9580   40.1130 C   0  0  0  0  0  0  0  0  0  0  0  0
  -10.1130  -16.3340   39.1040 C   0  0  0  0  0  0  0  0  0  0  0  0
  -10.5030  -17.0860   37.8660 C   0  0  0  0  0  0  0  0  0  0  0  0
  -11.9370  -17.4620   37.6370 C   0  0  0  0  0  0  0  0  0  0  0  0
  -12.9810  -17.0870   38.6460 C   0  0  0  0  0  0  0  0  0  0  0  0
  -13.3090  -16.0760   40.5780 H   0  0  0  0  0  0  0  0  0  0  0  0
  -10.8890  -15.4400   40.9640 H   0  0  0  0  0  0  0  0  0  0  0  0
   -9.1260  -16.0740   39.2610 H   0  0  0  0  0  0  0  0  0  0  0  0
  -12.2050  -17.9800   36.7850 H   0  0  0  0  0  0  0  0  0  0  0  0
  -13.9670  -17.3460   38.4890 H   0  0  0  0  0  0  0  0  0  0  0  0
  1  2  1  0
  1 35  1  0
  2  7  1  0
  3  8  1  0
  3  2  2  0
  4  3  1  0
  5  4  2  0
  5  6  1  0
  6  1  2  0
  9  5  1  0
 10  6  1  0
 11  4  1  0
 12 11  1  0
 12 13  1  0
 13 14  2  0
 14 23  1  0
 15 14  1  0
 16 15  1  0
 17 24  1  0
 17 16  2  0
 18 17  1  0
 19 18  2  0
 19 20  1  0
 20 21  2  0
 21 16  1  0
 21 12  1  0
 22 11  1  0
 25 18  1  0
 26 20  1  0
 27 19  1  0
 28 27  2  0
 29 30  2  0
 29 28  1  0
 30 31  1  0
 31 27  1  0
 32 28  1  0
 33 29  1  0
 34 30  1  0
 36 37  1  0
 36 42  1  0
 38 36  1  0
 39 40  1  0
 39 45  1  0
 40 46  1  0
 41 47  1  0
 41 40  2  0
 42 41  1  0
 43 42  2  0
 43 44  1  0
 44 39  2  0
 48 43  1  0
 49 44  1  0
M  END
>  <minimizedAffinity>  (100) 
-9.41571426

$$$$

     RDKit          3D

 66 64  0  0  0  0  0  0  0  0999 V2000
  -14.6120  -13.9240   33.8770 C   0  0  0  0  0  0  0  0  0  0  0  0
  -14.4700  -12.8740   32.8150 C   0  0  0  0  0  0  0  0  0  0  0  0
  -15.8480  -12.4440   32.4030 C   0  0  0  0  0  0  0  0  0  0  0  0
  -16.3260  -11.4390   31.3980 N   0  0  0  0  0  0  0  0  0  0  0  0
  -17.7970  -11.2190   31.1990 C   0  0  0  0  0  0  0  0  0  0  0  0
  -18.7880  -12.0030   32.0060 N   0  0  0  0  0  0  0  0  0  0  0  0
  -18.3100  -13.0080   33.0120 C   0  0  0  0  0  0  0  0  0  0  0  0
  -16.8390  -13.2280   33.2100 C   0  0  0  0  0  0  0  0  0  0  0  0
  -16.0760  -14.1440   34.1210 S   0  0  0  0  0  0  0  0  0  0  0  0
  -13.5830  -12.5110   32.4350 H   0  0  0  0  0  0  0  0  0  0  0  0
  -18.1260  -10.5270   30.5070 H   0  0  0  0  0  0  0  0  0  0  0  0
  -11.3290  -15.6480   35.0280 C   0  0  0  0  0 15  0  0  0  0  0  0
  -12.1790  -15.7930   36.2560 C   0  0  0  0  0  2  0  0  0  0  0  0
  -13.5130  -15.1660   35.9740 C   0  0  0  0  0  0  0  0  0  0  0  0
  -13.4870  -14.6320   34.5720 C   0  0  0  0  0  0  0  0  0  0  0  0
  -12.1370  -14.9300   33.9870 O   0  0  0  0  0  1  0  0  0  0  0  0
  -11.8980  -16.2460   37.1390 H   0  0  0  0  0  0  0  0  0  0  0  0
  -14.3080  -15.1110   36.6290 H   0  0  0  0  0  0  0  0  0  0  0  0
   -9.9200  -16.1340   34.8690 C   0  0  0  0  0  3  0  0  0  0  0  0
   -9.4670  -16.1550   33.9000 H   0  0  0  0  0  0  0  0  0  0  0  0
  -10.4730  -15.8080   34.0130 H   0  0  0  0  0  0  0  0  0  0  0  0
   -7.5930  -17.5040   38.4690 N   0  0  0  0  0  2  0  0  0  0  0  0
   -8.2540  -18.5110   37.5760 C   0  0  0  0  0  3  0  0  0  0  0  0
   -9.0300  -18.0540   36.3760 C   0  0  0  0  0  2  0  0  0  0  0  0
   -9.1440  -16.5900   36.0690 N   0  0  0  0  0  2  0  0  0  0  0  0
   -8.4820  -15.5830   36.9620 C   0  0  0  0  0  3  0  0  0  0  0  0
   -7.7070  -16.0400   38.1620 C   0  0  0  0  0  2  0  0  0  0  0  0
   -8.1730  -19.5550   37.7950 H   0  0  0  0  0  0  0  0  0  0  0  0
   -8.7260  -19.2290   36.9390 H   0  0  0  0  0  0  0  0  0  0  0  0
   -9.5020  -18.7730   35.7390 H   0  0  0  0  0  0  0  0  0  0  0  0
   -9.5830  -17.7290   35.5200 H   0  0  0  0  0  0  0  0  0  0  0  0
   -8.5640  -14.5390   36.7430 H   0  0  0  0  0  0  0  0  0  0  0  0
   -8.0100  -14.8650   37.5990 H   0  0  0  0  0  0  0  0  0  0  0  0
   -7.2350  -15.3210   38.7990 H   0  0  0  0  0  0  0  0  0  0  0  0
   -7.1530  -16.3650   39.0180 H   0  0  0  0  0  0  0  0  0  0  0  0
   -6.8170  -17.9600   39.6690 C   0  0  0  0  0  0  0  0  0  0  0  0
   -6.7360  -19.0040   39.8880 H   0  0  0  0  0  0  0  0  0  0  0  0
   -6.3450  -17.2410   40.3060 H   0  0  0  0  0  0  0  0  0  0  0  0
   -6.2640  -18.2850   40.5250 H   0  0  0  0  0  0  0  0  0  0  0  0
  -19.3010  -13.7930   33.8190 N   0  0  0  0  0  0  0  0  0  0  0  0
  -20.0760  -14.2090   33.3760 H   0  0  0  0  0  0  0  0  0  0  0  0
  -19.1130  -13.9420   35.2990 C   0  0  0  0  0  0  0  0  0  0  0  0
  -18.9380  -15.3060   35.8990 C   0  0  0  0  0  0  0  0  0  0  0  0
  -18.7500  -15.4550   37.3800 C   0  0  0  0  0  0  0  0  0  0  0  0
  -18.7360  -14.2410   38.2600 C   0  0  0  0  0  0  0  0  0  0  0  0
  -18.9110  -12.8770   37.6600 C   0  0  0  0  0  0  0  0  0  0  0  0
  -18.8970  -11.6630   38.5410 Cl  0  0  0  0  0  0  0  0  0  0  0  0
  -19.0990  -12.7280   36.1800 C   0  0  0  0  0  0  0  0  0  0  0  0
  -18.9480  -16.1410   35.2930 H   0  0  0  0  0  0  0  0  0  0  0  0
  -18.6290  -16.3930   37.7930 H   0  0  0  0  0  0  0  0  0  0  0  0
  -19.2190  -11.7890   35.7670 H   0  0  0  0  0  0  0  0  0  0  0  0
  -18.5470  -14.3900   39.7410 O   0  0  0  0  0  0  0  0  0  0  0  0
  -17.9470  -15.6470   40.2980 C   0  0  0  0  0  0  0  0  0  0  0  0
  -18.5600  -16.3390   40.8370 H   0  0  0  0  0  0  0  0  0  0  0  0
  -17.5190  -16.5440   40.6950 H   0  0  0  0  0  0  0  0  0  0  0  0
  -16.4890  -15.9340   40.0980 C   0  0  0  0  0  0  0  0  0  0  0  0
  -15.4680  -15.2770   40.9790 C   0  0  0  0  0  0  0  0  0  0  0  0
  -14.0090  -15.5640   40.7790 C   0  0  0  0  0  0  0  0  0  0  0  0
  -13.5710  -16.5080   39.6990 C   0  0  0  0  0  0  0  0  0  0  0  0
  -14.5920  -17.1650   38.8180 C   0  0  0  0  0  0  0  0  0  0  0  0
  -14.1540  -18.1100   37.7380 F   0  0  0  0  0  0  0  0  0  0  0  0
  -16.0510  -16.8780   39.0180 C   0  0  0  0  0  0  0  0  0  0  0  0
  -15.7690  -14.6270   41.7220 H   0  0  0  0  0  0  0  0  0  0  0  0
  -13.3060  -15.1110   41.3850 H   0  0  0  0  0  0  0  0  0  0  0  0
  -12.5670  -16.7050   39.5620 H   0  0  0  0  0  0  0  0  0  0  0  0
  -16.7540  -17.3310   38.4120 H   0  0  0  0  0  0  0  0  0  0  0  0
  1  9  1  0
  1 15  1  0
  2  1  2  0
  3  2  1  0
  3  8  2  0
  4  3  1  0
  5  4  2  0
  5  6  1  0
  6  7  2  0
  7  8  1  0
  7 40  1  0
  8  9  1  0
 10  2  1  0
 11  5  1  0
 13 17  1  0
 14 13  1  0
 14 18  1  0
 15 14  2  0
 16 15  1  0
 19 25  1  0
 20 19  1  0
 21 19  1  0
 22 36  1  0
 23 28  1  0
 23 22  1  0
 25 26  1  0
 26 33  1  0
 27 34  1  0
 27 35  1  0
 29 23  1  0
 30 24  1  0
 31 24  1  0
 32 26  1  0
 36 37  1  0
 36 38  1  0
 36 39  1  0
 40 42  1  0
 41 40  1  0
 42 43  2  0
 42 48  1  0
 43 44  1  0
 44 50  1  0
 44 45  2  0
 45 52  1  0
 46 45  1  0
 46 47  1  0
 48 46  2  0
 49 43  1  0
 51 48  1  0
 52 53  1  0
 53 55  1  0
 53 54  1  0
 56 53  1  0
 56 57  1  0
 57 63  1  0
 58 57  2  0
 58 64  1  0
 59 58  1  0
 60 62  1  0
 60 59  2  0
 61 60  1  0
 62 56  2  0
 65 59  1  0
 66 62  1  0
M  END
>  <minimizedAffinity>  (101) 
-10.217186

$$$$

     RDKit          3D

 45 47  0  0  0  0  0  0  0  0999 V2000
  -12.9770  -15.4310   35.8240 C   0  0  0  0  0  0  0  0  0  0  0  0
  -14.3970  -15.7160   36.2120 N   0  0  0  0  0  0  0  0  0  0  0  0
  -15.2930  -14.9710   35.2680 C   0  0  0  0  0  0  0  0  0  0  0  0
  -14.4250  -14.2250   34.2970 C   0  0  0  0  0  0  0  0  0  0  0  0
  -12.9950  -14.5100   34.6410 N   0  0  0  0  0  0  0  0  0  0  0  0
  -12.2040  -14.1540   34.1720 H   0  0  0  0  0  0  0  0  0  0  0  0
  -14.9060  -13.3490   33.1770 C   0  0  0  0  0  0  0  0  0  0  0  0
  -14.5450  -13.6780   31.7600 C   0  0  0  0  0  0  0  0  0  0  0  0
  -15.0260  -12.8020   30.6410 C   0  0  0  0  0  0  0  0  0  0  0  0
  -15.8670  -11.5960   30.9410 C   0  0  0  0  0  3  0  0  0  0  0  0
  -16.2280  -11.2680   32.3590 C   0  0  0  0  0  0  0  0  0  0  0  0
  -15.7470  -12.1440   33.4780 C   0  0  0  0  0  0  0  0  0  0  0  0
  -17.0650  -10.0230   32.3470 O   0  0  0  0  0  0  0  0  0  0  0  0
  -17.2220   -9.5830   30.9210 C   0  0  0  0  0  3  0  0  0  0  0  0
  -16.4810  -10.5550   30.0530 O   0  0  0  0  0 15  0  0  0  0  0  0
  -13.9670  -14.5060   31.5530 H   0  0  0  0  0  0  0  0  0  0  0  0
  -14.7770  -13.0280   29.6660 H   0  0  0  0  0  0  0  0  0  0  0  0
  -15.9960  -11.9170   34.4540 H   0  0  0  0  0  0  0  0  0  0  0  0
  -17.7660   -8.7260   30.5850 H   0  0  0  0  0  0  0  0  0  0  0  0
  -17.2400   -9.4030   29.8670 H   0  0  0  0  0  0  0  0  0  0  0  0
   -9.3030  -17.0540   37.8550 C   0  0  0  0  0  0  0  0  0  0  0  0
   -9.1820  -16.3570   36.5320 C   0  0  0  0  0  0  0  0  0  0  0  0
  -10.4070  -15.8160   35.8560 C   0  0  0  0  0  0  0  0  0  0  0  0
  -11.7520  -15.9720   36.5020 C   0  0  0  0  0  0  0  0  0  0  0  0
  -11.8730  -16.6690   37.8240 C   0  0  0  0  0  0  0  0  0  0  0  0
  -10.6470  -17.2100   38.5010 C   0  0  0  0  0  0  0  0  0  0  0  0
   -8.2570  -16.2500   36.0870 H   0  0  0  0  0  0  0  0  0  0  0  0
  -10.3250  -15.3360   34.9450 H   0  0  0  0  0  0  0  0  0  0  0  0
  -12.7970  -16.7770   38.2690 H   0  0  0  0  0  0  0  0  0  0  0  0
  -10.7300  -17.6900   39.4110 H   0  0  0  0  0  0  0  0  0  0  0  0
   -8.1000  -18.9680   39.1350 N   0  0  0  0  0  0  0  0  0  0  0  0
   -8.0780  -17.5950   38.5320 C   0  0  0  0  0  0  0  0  0  0  0  0
   -6.8320  -16.7630   38.6050 O   0  0  0  0  0  0  0  0  0  0  0  0
   -8.9170  -19.5150   39.0870 H   0  0  0  0  0  0  0  0  0  0  0  0
   -7.2950  -19.3230   39.5790 H   0  0  0  0  0  0  0  0  0  0  0  0
  -16.7930  -14.9710   35.2900 C   0  0  0  0  0  0  0  0  0  0  0  0
  -17.5240  -14.8120   36.5910 C   0  0  0  0  0  0  0  0  0  0  0  0
  -19.0230  -14.8120   36.6130 C   0  0  0  0  0  0  0  0  0  0  0  0
  -19.7930  -14.9700   35.3360 C   0  0  0  0  0  0  0  0  0  0  0  0
  -19.0620  -15.1290   34.0350 C   0  0  0  0  0  0  0  0  0  0  0  0
  -17.5620  -15.1290   34.0130 N   0  0  0  0  0  0  0  0  0  0  0  0
  -16.9940  -14.7030   37.4700 H   0  0  0  0  0  0  0  0  0  0  0  0
  -19.5260  -14.7030   37.5080 H   0  0  0  0  0  0  0  0  0  0  0  0
  -20.8240  -14.9700   35.3510 H   0  0  0  0  0  0  0  0  0  0  0  0
  -19.5910  -15.2380   33.1560 H   0  0  0  0  0  0  0  0  0  0  0  0
  1  2  2  0
  1 24  1  0
  3 36  1  0
  3  2  1  0
  4  5  1  0
  4  3  2  0
  5  1  1  0
  6  5  1  0
  7 12  1  0
  7  4  1  0
  8  7  2  0
  9 10  2  0
  9  8  1  0
 10 11  1  0
 11 12  2  0
 12 18  1  0
 13 11  1  0
 14 13  1  0
 16  8  1  0
 17  9  1  0
 19 14  1  0
 20 14  1  0
 21 26  1  0
 21 32  1  0
 22 21  2  0
 23 24  2  0
 23 22  1  0
 24 25  1  0
 25 29  1  0
 25 26  2  0
 26 30  1  0
 27 22  1  0
 28 23  1  0
 31 35  1  0
 32 33  2  0
 32 31  1  0
 34 31  1  0
 36 37  1  0
 37 38  2  0
 37 42  1  0
 38 43  1  0
 39 44  1  0
 39 38  1  0
 40 39  2  0
 41 40  1  0
 41 36  2  0
 45 40  1  0
M  END
>  <minimizedAffinity>  (102) 
-8.98625851

$$$$

     RDKit          3D

 37 39  0  0  0  0  0  0  0  0999 V2000
  -18.3120  -11.5490   31.6740 C   0  0  0  0  0  0  0  0  0  0  0  0
  -17.4220  -10.5560   30.9870 C   0  0  0  0  0  0  0  0  0  0  0  0
  -15.9390  -10.6000   31.2080 C   0  0  0  0  0  0  0  0  0  0  0  0
  -15.0480   -9.6070   30.5210 Cl  0  0  0  0  0  0  0  0  0  0  0  0
  -15.3460  -11.6360   32.1160 C   0  0  0  0  0  0  0  0  0  0  0  0
  -16.2370  -12.6290   32.8030 C   0  0  0  0  0  0  0  0  0  0  0  0
  -17.7200  -12.5850   32.5820 C   0  0  0  0  0  0  0  0  0  0  0  0
  -18.3420  -13.6860   33.3890 N   0  0  0  0  0  0  0  0  0  0  0  0
  -17.2430  -14.4100   34.1090 C   0  0  0  0  0  0  0  0  0  0  0  0
  -17.4150  -15.5810   35.0300 O   0  0  0  0  0  0  0  0  0  0  0  0
  -15.9420  -13.7570   33.7480 C   0  0  0  0  0  0  0  0  0  0  0  0
  -14.5850  -14.1600   34.2420 N   0  0  0  0  0  0  0  0  0  0  0  0
  -17.8290   -9.8430   30.3620 H   0  0  0  0  0  0  0  0  0  0  0  0
  -14.3260  -11.6660   32.2690 H   0  0  0  0  0  0  0  0  0  0  0  0
  -19.3020  -13.8960   33.4380 H   0  0  0  0  0  0  0  0  0  0  0  0
  -19.7950  -11.5050   31.4520 C   0  0  0  0  0  0  0  0  0  0  0  0
  -20.2180  -10.7650   30.8040 H   0  0  0  0  0  0  0  0  0  0  0  0
  -20.4300  -12.2130   31.9430 H   0  0  0  0  0  0  0  0  0  0  0  0
  -20.8530  -11.4740   31.2950 H   0  0  0  0  0  0  0  0  0  0  0  0
  -14.4450  -15.3150   35.1890 N   0  0  0  0  0  0  0  0  0  0  0  0
  -15.2340  -15.8510   35.4320 H   0  0  0  0  0  0  0  0  0  0  0  0
  -13.1020  -15.6540   35.7660 C   0  0  0  0  0  0  0  0  0  0  0  0
  -11.8520  -15.2330   35.0520 C   0  0  0  0  0  0  0  0  0  0  0  0
  -10.5090  -15.5720   35.6290 C   0  0  0  0  0  0  0  0  0  0  0  0
  -10.4170  -16.3320   36.9200 C   0  0  0  0  0  0  0  0  0  0  0  0
  -11.6680  -16.7520   37.6330 C   0  0  0  0  0  0  0  0  0  0  0  0
  -13.0110  -16.4130   37.0560 C   0  0  0  0  0  0  0  0  0  0  0  0
  -11.9140  -14.7110   34.1640 H   0  0  0  0  0  0  0  0  0  0  0  0
   -9.6480  -15.2830   35.1390 H   0  0  0  0  0  0  0  0  0  0  0  0
  -11.6050  -17.2750   38.5210 H   0  0  0  0  0  0  0  0  0  0  0  0
  -13.8710  -16.7030   37.5470 H   0  0  0  0  0  0  0  0  0  0  0  0
   -9.0750  -16.6710   37.4960 S   0  0  1  0  0  0  0  0  0  0  0  0
   -9.5850  -16.3580   38.8710 O   0  0  0  0  0  0  0  0  0  0  0  0
   -8.5630  -16.9830   36.1200 O   0  0  0  0  0  0  0  0  0  0  0  0
   -7.7310  -17.0100   38.0720 N   0  0  0  0  0  0  0  0  0  0  0  0
   -7.5760  -16.9410   39.0770 H   0  0  0  0  0  0  0  0  0  0  0  0
   -6.9740  -17.3090   37.4570 H   0  0  0  0  0  0  0  0  0  0  0  0
  1  7  1  0
  2  3  1  0
  2  1  2  0
  3  5  2  0
  4  3  1  0
  5 14  1  0
  5  6  1  0
  6 11  1  0
  7  6  2  0
  7  8  1  0
  8 15  1  0
  8  9  1  0
  9 10  2  0
 11  9  1  0
 11 12  2  0
 12 20  1  0
 13  2  1  0
 16  1  1  0
 16 18  1  0
 17 16  1  0
 19 16  1  0
 20 21  1  0
 20 22  1  0
 22 27  1  0
 23 24  1  0
 23 22  2  0
 24 25  2  0
 25 32  1  0
 25 26  1  0
 26 30  1  0
 27 31  1  0
 27 26  2  0
 28 23  1  0
 29 24  1  0
 32 35  1  0
 32 33  2  0
 34 32  2  0
 35 36  1  0
 37 35  1  0
M  END
>  <minimizedAffinity>  (103) 
-7.98878479

$$$$

     RDKit          3D

 33 35  0  0  0  0  0  0  0  0999 V2000
  -16.4730  -16.3810   35.3690 O   0  0  0  0  0  0  0  0  0  0  0  0
  -15.9240  -16.6030   36.7470 C   0  0  0  0  0  0  0  0  0  0  0  0
  -16.2740  -17.7390   37.6630 N   0  0  0  0  0  0  0  0  0  0  0  0
  -15.4960  -17.5660   38.9330 C   0  0  0  0  0  0  0  0  0  0  0  0
  -15.5400  -18.4760   40.1250 O   0  0  0  0  0  0  0  0  0  0  0  0
  -14.6650  -16.3240   38.8030 C   0  0  0  0  0  0  0  0  0  0  0  0
  -14.9300  -15.7290   37.4530 C   0  0  0  0  0  0  0  0  0  0  0  0
  -16.9030  -18.4690   37.4640 H   0  0  0  0  0  0  0  0  0  0  0  0
  -13.7340  -15.7730   39.8420 C   0  0  0  0  0  0  0  0  0  0  0  0
  -14.2650  -14.8930   40.9340 C   0  0  0  0  0  0  0  0  0  0  0  0
  -13.3330  -14.3420   41.9730 C   0  0  0  0  0  0  0  0  0  0  0  0
  -11.8710  -14.6720   41.9200 C   0  0  0  0  0  0  0  0  0  0  0  0
  -11.3400  -15.5520   40.8270 C   0  0  0  0  0  0  0  0  0  0  0  0
  -12.2720  -16.1030   39.7890 C   0  0  0  0  0  0  0  0  0  0  0  0
  -11.7410  -16.9840   38.6960 Cl  0  0  0  0  0  0  0  0  0  0  0  0
  -15.2710  -14.6660   40.9710 H   0  0  0  0  0  0  0  0  0  0  0  0
  -13.6980  -13.7360   42.7250 H   0  0  0  0  0  0  0  0  0  0  0  0
  -11.2300  -14.2930   42.6340 H   0  0  0  0  0  0  0  0  0  0  0  0
  -10.3340  -15.7790   40.7910 H   0  0  0  0  0  0  0  0  0  0  0  0
  -14.3100  -14.4790   36.9030 N   0  0  0  0  0  0  0  0  0  0  0  0
  -14.4310  -13.6220   37.3710 H   0  0  0  0  0  0  0  0  0  0  0  0
  -13.5050  -14.5340   35.6380 C   0  0  0  0  0  0  0  0  0  0  0  0
  -12.0910  -15.0330   35.6700 C   0  0  0  0  0  0  0  0  0  0  0  0
  -11.2860  -15.0880   34.4060 C   0  0  0  0  0  0  0  0  0  0  0  0
  -11.8950  -14.6430   33.1090 C   0  0  0  0  0  0  0  0  0  0  0  0
  -13.3090  -14.1440   33.0770 C   0  0  0  0  0  0  0  0  0  0  0  0
  -14.1140  -14.0890   34.3410 C   0  0  0  0  0  0  0  0  0  0  0  0
  -11.6710  -15.3390   36.5620 H   0  0  0  0  0  0  0  0  0  0  0  0
  -10.3130  -15.4310   34.4270 H   0  0  0  0  0  0  0  0  0  0  0  0
  -11.3420  -14.6810   32.2390 H   0  0  0  0  0  0  0  0  0  0  0  0
  -15.0870  -13.7460   34.3190 H   0  0  0  0  0  0  0  0  0  0  0  0
  -13.9190  -13.6990   31.7800 O   0  0  0  0  0  0  0  0  0  0  0  0
  -13.4160  -13.7340   30.9900 H   0  0  0  0  0  0  0  0  0  0  0  0
  1  2  2  0
  2  7  1  0
  2  3  1  0
  3  4  1  0
  4  5  2  0
  6  4  1  0
  6  9  1  0
  7  6  2  0
  8  3  1  0
  9 10  1  0
 10 16  1  0
 10 11  2  0
 11 17  1  0
 12 11  1  0
 12 18  1  0
 13 12  2  0
 14  9  2  0
 14 13  1  0
 15 14  1  0
 19 13  1  0
 20 21  1  0
 20  7  1  0
 22 23  1  0
 22 20  1  0
 23 28  1  0
 24 29  1  0
 24 23  2  0
 25 24  1  0
 26 25  2  0
 26 27  1  0
 27 22  2  0
 30 25  1  0
 31 27  1  0
 32 26  1  0
 33 32  1  0
M  END
>  <minimizedAffinity>  (104) 
-8.73342705

$$$$

     RDKit          3D

 33 35  0  0  0  0  0  0  0  0999 V2000
  -12.2400  -17.1510   39.4700 N   0  0  0  0  0  0  0  0  0  0  0  0
  -13.6980  -16.9450   39.1810 C   0  0  0  0  0  0  0  0  0  0  0  0
  -14.8370  -17.3190   40.0820 N   0  0  0  0  0  0  0  0  0  0  0  0
  -16.1150  -16.9330   39.3970 C   0  0  0  0  0  0  0  0  0  0  0  0
  -15.7650  -16.3200   38.0740 C   0  0  0  0  0  0  0  0  0  0  0  0
  -14.2720  -16.3270   37.9400 O   0  0  0  0  0  0  0  0  0  0  0  0
  -11.9610  -17.5670   40.3170 H   0  0  0  0  0  0  0  0  0  0  0  0
  -17.0670  -17.0660   39.7720 H   0  0  0  0  0  0  0  0  0  0  0  0
  -16.7390  -15.7930   37.0620 C   0  0  0  0  0  0  0  0  0  0  0  0
  -18.2020  -15.7370   37.3860 C   0  0  0  0  0  0  0  0  0  0  0  0
  -19.1750  -15.2090   36.3740 C   0  0  0  0  0  0  0  0  0  0  0  0
  -18.6860  -14.7380   35.0380 C   0  0  0  0  0  0  0  0  0  0  0  0
  -17.2220  -14.7940   34.7130 C   0  0  0  0  0  0  0  0  0  0  0  0
  -16.2490  -15.3210   35.7250 C   0  0  0  0  0  0  0  0  0  0  0  0
  -18.5390  -16.0610   38.3070 H   0  0  0  0  0  0  0  0  0  0  0  0
  -20.1820  -15.1710   36.5980 H   0  0  0  0  0  0  0  0  0  0  0  0
  -19.3550  -14.3750   34.3420 H   0  0  0  0  0  0  0  0  0  0  0  0
  -16.8850  -14.4690   33.7930 H   0  0  0  0  0  0  0  0  0  0  0  0
  -15.2420  -15.3590   35.5010 H   0  0  0  0  0  0  0  0  0  0  0  0
  -10.5900  -15.9480   36.0670 C   0  0  0  0  0  0  0  0  0  0  0  0
   -9.1460  -15.8690   36.4650 C   0  0  0  0  0  0  0  0  0  0  0  0
   -8.7330  -16.2170   37.8650 C   0  0  0  0  0  0  0  0  0  0  0  0
   -9.7650  -16.6440   38.8660 C   0  0  0  0  0  0  0  0  0  0  0  0
  -11.2090  -16.7240   38.4690 C   0  0  0  0  0  0  0  0  0  0  0  0
  -11.6220  -16.3760   37.0690 C   0  0  0  0  0  0  0  0  0  0  0  0
   -8.4360  -15.5750   35.7760 H   0  0  0  0  0  0  0  0  0  0  0  0
   -7.7400  -16.1620   38.1380 H   0  0  0  0  0  0  0  0  0  0  0  0
   -9.4810  -16.8840   39.8290 H   0  0  0  0  0  0  0  0  0  0  0  0
  -12.6150  -16.4300   36.7950 H   0  0  0  0  0  0  0  0  0  0  0  0
  -11.0030  -15.6000   34.6680 C   0  0  0  0  0  0  0  0  0  0  0  0
  -10.2670  -15.2950   33.9530 H   0  0  0  0  0  0  0  0  0  0  0  0
  -12.0330  -15.6570   34.3840 H   0  0  0  0  0  0  0  0  0  0  0  0
  -11.2970  -15.3520   33.6700 H   0  0  0  0  0  0  0  0  0  0  0  0
  1  7  1  0
  2  1  1  0
  2  3  2  0
  4  8  1  0
  4  3  1  0
  5  4  2  0
  6  5  1  0
  6  2  1  0
  9 10  1  0
  9  5  1  0
 10 15  1  0
 11 16  1  0
 11 10  2  0
 12 11  1  0
 13 12  2  0
 13 14  1  0
 14  9  2  0
 17 12  1  0
 18 13  1  0
 19 14  1  0
 20 21  2  0
 20 25  1  0
 21 22  1  0
 22 27  1  0
 22 23  2  0
 23 28  1  0
 24 23  1  0
 24  1  1  0
 25 24  2  0
 26 21  1  0
 29 25  1  0
 30 20  1  0
 31 30  1  0
 32 30  1  0
 33 30  1  0
M  END
>  <minimizedAffinity>  (105) 
-8.0111208

$$$$

     RDKit          3D

 69 67  0  0  1  0  0  0  0  0999 V2000
  -19.0720  -12.7650   36.2180 C   0  0  0  0  0  0  0  0  0  0  0  0
  -18.7340  -12.2460   34.8530 C   0  0  0  0  0  0  0  0  0  0  0  0
  -18.7800  -13.1650   33.6680 C   0  0  0  0  0  3  0  0  0  0  0  0
  -19.1630  -14.6040   33.8490 C   0  0  0  0  0  0  0  0  0  0  0  0
  -19.5010  -15.1240   35.2150 C   0  0  0  0  0  0  0  0  0  0  0  0
  -19.4550  -14.2050   36.4000 C   0  0  0  0  0  0  0  0  0  0  0  0
  -18.4700  -11.2560   34.7290 H   0  0  0  0  0  0  0  0  0  0  0  0
  -19.1940  -15.2360   33.0340 H   0  0  0  0  0  0  0  0  0  0  0  0
  -19.7650  -16.1140   35.3390 H   0  0  0  0  0  0  0  0  0  0  0  0
  -18.4410  -12.6450   32.3020 N   0  0  0  0  0  1  0  0  0  0  0  0
  -17.4970  -13.4080   31.4220 C   0  0  0  0  0  3  0  0  0  0  0  0
  -17.1590  -12.8880   30.0560 C   0  0  0  0  0  2  0  0  0  0  0  0
  -17.7660  -11.6050   29.5710 N   0  0  0  0  0  1  0  0  0  0  0  0
  -18.7100  -10.8420   30.4510 C   0  0  0  0  0  3  0  0  0  0  0  0
  -19.0480  -11.3620   31.8170 C   0  0  0  0  0  2  0  0  0  0  0  0
  -17.0650  -14.3240   31.7680 H   0  0  0  0  0  0  0  0  0  0  0  0
  -16.8230  -13.9530   30.7930 H   0  0  0  0  0  0  0  0  0  0  0  0
  -16.4850  -13.4330   29.4280 H   0  0  0  0  0  0  0  0  0  0  0  0
  -16.9180  -12.5180   29.0810 H   0  0  0  0  0  0  0  0  0  0  0  0
  -19.1420   -9.9270   30.1050 H   0  0  0  0  0  0  0  0  0  0  0  0
  -19.3840  -10.2970   31.0790 H   0  0  0  0  0  0  0  0  0  0  0  0
  -19.7220  -10.8170   32.4450 H   0  0  0  0  0  0  0  0  0  0  0  0
  -19.2890  -11.7320   32.7910 H   0  0  0  0  0  0  0  0  0  0  0  0
  -17.4280  -11.0850   28.2050 C   0  0  0  0  0  3  0  0  0  0  0  0
  -17.1870  -10.7140   27.2300 H   0  0  0  0  0  0  0  0  0  0  0  0
  -18.2480  -11.5010   27.0190 C   0  0  0  0  0  0  0  0  0  0  0  0
  -19.0740  -12.1690   27.1480 H   0  0  0  0  0  0  0  0  0  0  0  0
  -18.0060  -11.1300   26.0460 H   0  0  0  0  0  0  0  0  0  0  0  0
  -18.8320  -11.7980   26.1750 H   0  0  0  0  0  0  0  0  0  0  0  0
  -16.2700  -10.1490   28.0240 C   0  0  0  0  0  0  0  0  0  0  0  0
  -16.0280   -9.7780   27.0500 H   0  0  0  0  0  0  0  0  0  0  0  0
  -15.6850   -9.8530   28.8700 H   0  0  0  0  0  0  0  0  0  0  0  0
  -15.4430   -9.4820   27.8950 H   0  0  0  0  0  0  0  0  0  0  0  0
  -19.7930  -14.7240   37.7650 N   0  0  0  0  0  0  0  0  0  0  0  0
  -18.8700  -15.6880   38.4510 C   0  0  0  0  0  0  0  0  0  0  0  0
  -17.6090  -16.1310   37.7710 N   0  0  0  0  0  0  0  0  0  0  0  0
  -16.6860  -17.0940   38.4560 C   0  0  0  0  0  3  0  0  0  0  0  0
  -17.0240  -17.6140   39.8210 C   0  0  0  0  0  0  0  0  0  0  0  0
  -16.3120  -18.5660   40.7380 C   0  0  0  0  0  0  0  0  0  0  0  0
  -17.1340  -18.7100   41.9850 C   0  0  0  0  0  0  0  0  0  0  0  0
  -18.3530  -17.8480   41.8390 N   0  0  0  0  0  0  0  0  0  0  0  0
  -18.2840  -17.1710   40.5020 C   0  0  0  0  0  0  0  0  0  0  0  0
  -19.2080  -16.2070   39.8170 N   0  0  0  0  0  2  0  0  0  0  0  0
  -20.6210  -14.4340   38.2130 H   0  0  0  0  0  0  0  0  0  0  0  0
  -15.4150  -19.0380   40.5440 H   0  0  0  0  0  0  0  0  0  0  0  0
  -16.9020  -19.2990   42.7990 H   0  0  0  0  0  0  0  0  0  0  0  0
  -19.0720  -17.7450   42.5040 H   0  0  0  0  0  0  0  0  0  0  0  0
  -15.4240  -17.5380   37.7760 N   0  0  0  0  0  0  0  0  0  0  0  0
  -15.0520  -18.4290   37.9620 H   0  0  0  0  0  0  0  0  0  0  0  0
  -14.7310  -16.6220   36.8100 C   0  0  0  0  0  0  0  0  0  0  0  0
  -15.5120  -15.9520   35.7190 C   0  0  0  0  0  0  0  0  0  0  0  0
  -14.8190  -15.0370   34.7550 C   0  0  0  0  0  0  0  0  0  0  0  0
  -13.3450  -14.7910   34.8810 C   0  0  0  0  0  0  0  0  0  0  0  0
  -12.6520  -13.8750   33.9160 F   0  0  0  0  0  0  0  0  0  0  0  0
  -12.5640  -15.4610   35.9730 C   0  0  0  0  0  0  0  0  0  0  0  0
  -13.2570  -16.3760   36.9370 C   0  0  0  0  0  0  0  0  0  0  0  0
  -16.5270  -16.1220   35.6320 H   0  0  0  0  0  0  0  0  0  0  0  0
  -15.3560  -14.5760   34.0030 H   0  0  0  0  0  0  0  0  0  0  0  0
  -11.5490  -15.2920   36.0600 H   0  0  0  0  0  0  0  0  0  0  0  0
  -12.4760  -17.0460   38.0290 C   0  0  0  0  0  0  0  0  0  0  0  0
  -11.1020  -17.5770   37.7500 N   0  0  0  0  0  0  0  0  0  0  0  0
  -13.0700  -17.1850   39.3990 O   0  0  0  0  0  0  0  0  0  0  0  0
  -10.5890  -18.0170   38.4660 H   0  0  0  0  0  0  0  0  0  0  0  0
  -10.7110  -17.4860   36.8500 H   0  0  0  0  0  0  0  0  0  0  0  0
  -19.0260  -11.8470   37.4030 O   0  0  0  0  0  0  0  0  0  0  0  0
  -18.9640  -10.3620   37.1990 C   0  0  0  0  0  0  0  0  0  0  0  0
  -18.9530   -9.9580   36.2090 H   0  0  0  0  0  0  0  0  0  0  0  0
  -18.9320   -9.7070   38.0440 H   0  0  0  0  0  0  0  0  0  0  0  0
  -18.9200   -9.3030   37.0530 H   0  0  0  0  0  0  0  0  0  0  0  0
  1  6  1  0
  1 65  1  0
  2  1  2  0
  3  4  2  0
  3  2  1  0
  4  5  1  0
  5  9  1  0
  5  6  2  0
  6 34  1  0
  7  2  1  0
  8  4  1  0
 11 16  1  0
 11 10  1  0
 13 14  1  0
 14 21  1  0
 15 22  1  0
 15 23  1  0
 17 11  1  0
 18 12  1  0
 19 12  1  0
 20 14  1  0
 25 24  1  0
 26 27  1  0
 26 24  1  0
 28 26  1  0
 29 26  1  0
 30 24  1  0
 30 32  1  0
 31 30  1  0
 33 30  1  0
 34 44  1  0
 34 35  1  0
 35 43  1  0
 36 35  2  0
 36 37  1  0
 37 48  1  0
 37 38  1  0
 38 42  2  0
 38 39  1  0
 39 40  2  0
 40 46  1  0
 41 40  1  0
 41 47  1  0
 42 41  1  0
 43 42  1  0
 45 39  1  0
 48 49  1  0
 50 56  1  0
 50 48  1  0
 51 50  2  0
 52 53  2  0
 52 51  1  0
 53 55  1  0
 54 53  1  0
 55 59  1  0
 55 56  2  0
 56 60  1  0
 57 51  1  0
 58 52  1  0
 60 62  2  0
 61 60  1  0
 61 63  1  0
 64 61  1  0
 66 65  1  0
 66 68  1  0
 67 66  1  0
 69 66  1  0
M  END
>  <minimizedAffinity>  (106) 
-8.49809265

$$$$

     RDKit          3D

 51 54  0  0  0  0  0  0  0  0999 V2000
  -14.8690  -15.0580   34.6780 C   0  0  0  0  0  0  0  0  0  0  0  0
  -15.5720  -15.8630   35.7310 C   0  0  0  0  0  0  0  0  0  0  0  0
  -16.9990  -15.4070   35.7860 C   0  0  0  0  0  0  0  0  0  0  0  0
  -17.1790  -14.3210   34.7670 C   0  0  0  0  0  0  0  0  0  0  0  0
  -15.8620  -14.1050   34.0820 S   0  0  0  0  0  0  0  0  0  0  0  0
  -15.1470  -16.6000   36.3150 H   0  0  0  0  0  0  0  0  0  0  0  0
   -9.7310  -16.5260   36.4340 C   0  0  0  0  0  0  0  0  0  0  0  0
   -9.7500  -16.0610   35.0090 C   0  0  0  0  0  0  0  0  0  0  0  0
  -11.0410  -15.6300   34.3780 C   0  0  0  0  0  0  0  0  0  0  0  0
  -11.3680  -15.1270   33.0030 N   0  0  0  0  0  0  0  0  0  0  0  0
  -12.8420  -14.8510   32.9480 C   0  0  0  0  0  0  0  0  0  0  0  0
  -13.4250  -15.1840   34.2890 N   0  0  0  0  0  0  0  0  0  0  0  0
  -12.3120  -15.6650   35.1720 C   0  0  0  0  0  0  0  0  0  0  0  0
  -12.2930  -16.1320   36.5980 C   0  0  0  0  0  0  0  0  0  0  0  0
  -11.0020  -16.5620   37.2290 C   0  0  0  0  0  0  0  0  0  0  0  0
   -8.8750  -16.0360   34.4620 H   0  0  0  0  0  0  0  0  0  0  0  0
  -13.3620  -14.4960   32.1310 H   0  0  0  0  0  0  0  0  0  0  0  0
  -13.1680  -16.1560   37.1450 H   0  0  0  0  0  0  0  0  0  0  0  0
   -8.4390  -16.9570   37.0650 O   0  0  0  0  0  0  0  0  0  0  0  0
   -8.2590  -18.3790   37.5080 C   0  0  0  0  0  0  0  0  0  0  0  0
   -9.0510  -19.0860   37.3740 H   0  0  0  0  0  0  0  0  0  0  0  0
   -7.3380  -18.6850   37.9580 H   0  0  0  0  0  0  0  0  0  0  0  0
   -8.1300  -19.3930   37.8250 H   0  0  0  0  0  0  0  0  0  0  0  0
  -10.9820  -17.0280   38.6550 O   0  0  0  0  0  0  0  0  0  0  0  0
  -10.6440  -16.0650   39.7530 C   0  0  0  0  0  0  0  0  0  0  0  0
  -10.6300  -16.3970   40.7710 H   0  0  0  0  0  0  0  0  0  0  0  0
  -10.4170  -15.0450   39.5210 H   0  0  0  0  0  0  0  0  0  0  0  0
  -10.4030  -15.3770   40.5380 H   0  0  0  0  0  0  0  0  0  0  0  0
  -18.4520  -13.5810   34.4830 C   0  0  0  0  0  2  0  0  0  0  0  0
  -19.7260  -12.8400   34.1990 N   0  0  0  0  0  1  0  0  0  0  0  0
  -18.0610  -15.9430   36.7000 O   0  0  0  0  0  0  0  0  0  0  0  0
  -18.1980  -15.4000   38.0910 C   0  0  0  0  0  0  0  0  0  0  0  0
  -18.2030  -14.3430   38.2550 H   0  0  0  0  0  0  0  0  0  0  0  0
  -18.2960  -15.0120   39.0840 H   0  0  0  0  0  0  0  0  0  0  0  0
  -18.3290  -16.3380   39.2540 C   0  0  0  0  0  0  0  0  0  0  0  0
  -19.6650  -16.9260   39.5970 C   0  0  0  0  0  0  0  0  0  0  0  0
  -19.7940  -17.8650   40.7610 C   0  0  0  0  0  0  0  0  0  0  0  0
  -18.5880  -18.2150   41.5800 C   0  0  0  0  0  0  0  0  0  0  0  0
  -17.2520  -17.6280   41.2370 C   0  0  0  0  0  0  0  0  0  0  0  0
  -17.1220  -16.6890   40.0730 C   0  0  0  0  0  0  0  0  0  0  0  0
  -20.4950  -16.6850   39.0340 H   0  0  0  0  0  0  0  0  0  0  0  0
  -20.7140  -18.2690   40.9970 H   0  0  0  0  0  0  0  0  0  0  0  0
  -18.6780  -18.8610   42.3800 H   0  0  0  0  0  0  0  0  0  0  0  0
  -16.4210  -17.8680   41.8000 H   0  0  0  0  0  0  0  0  0  0  0  0
  -15.7860  -16.1010   39.7300 S   0  0  1  0  0  0  0  0  0  0  0  0
  -16.0730  -14.9270   40.6180 O   0  0  0  0  0  0  0  0  0  0  0  0
  -15.4980  -17.2740   38.8410 O   0  0  0  0  0  0  0  0  0  0  0  0
  -14.4480  -15.5120   39.3850 C   0  0  0  0  0  0  0  0  0  0  0  0
  -13.7950  -16.0270   38.7140 H   0  0  0  0  0  0  0  0  0  0  0  0
  -14.1500  -14.5780   39.8120 H   0  0  0  0  0  0  0  0  0  0  0  0
  -13.4960  -15.0930   39.1400 H   0  0  0  0  0  0  0  0  0  0  0  0
  1  2  2  0
  2  3  1  0
  2  6  1  0
  3 31  1  0
  4  3  2  0
  5  1  1  0
  5  4  1  0
  7 19  1  0
  7 15  1  0
  8  7  2  0
  9  8  1  0
  9 13  2  0
 10  9  1  0
 11 10  2  0
 11 12  1  0
 12  1  1  0
 12 13  1  0
 13 14  1  0
 14 18  1  0
 14 15  2  0
 15 24  1  0
 16  8  1  0
 17 11  1  0
 19 20  1  0
 20 23  1  0
 20 22  1  0
 21 20  1  0
 24 25  1  0
 25 28  1  0
 25 26  1  0
 27 25  1  0
 29  4  1  0
 30 29  1  0
 31 32  1  0
 32 33  1  0
 32 34  1  0
 32 35  1  0
 35 36  2  0
 35 40  1  0
 36 37  1  0
 37 42  1  0
 37 38  2  0
 38 43  1  0
 39 38  1  0
 39 44  1  0
 40 39  2  0
 41 36  1  0
 45 40  1  0
 45 46  2  0
 47 45  2  0
 48 45  1  0
 48 50  1  0
 49 48  1  0
 51 48  1  0
M  END
>  <minimizedAffinity>  (107) 
-8.30430126

$$$$

     RDKit          3D

 63 64  0  0  1  0  0  0  0  0999 V2000
  -14.4040  -13.5140   32.9500 C   0  0  0  0  0  0  0  0  0  0  0  0
  -15.5230  -12.9490   33.7720 C   0  0  0  0  0  0  0  0  0  0  0  0
  -16.5530  -12.3930   32.8330 C   0  0  0  0  0  0  0  0  0  0  0  0
  -17.8680  -11.7140   33.0740 C   0  0  0  0  0  3  0  0  0  0  0  0
  -18.7000  -11.2570   31.9130 N   0  0  0  0  0  0  0  0  0  0  0  0
  -18.2170  -11.4790   30.5110 C   0  0  0  0  0  0  0  0  0  0  0  0
  -16.9020  -12.1580   30.2700 N   0  0  0  0  0  2  0  0  0  0  0  0
  -16.0700  -12.6160   31.4310 C   0  0  0  0  0  0  0  0  0  0  0  0
  -14.7410  -13.3080   31.5030 S   0  0  0  0  0  0  0  0  0  0  0  0
  -15.5760  -12.9430   34.8020 H   0  0  0  0  0  0  0  0  0  0  0  0
  -18.7900  -11.1640   29.7110 H   0  0  0  0  0  0  0  0  0  0  0  0
  -11.5220  -15.1190   34.9960 C   0  0  0  0  0  3  0  0  0  0  0  0
  -12.8660  -14.4560   34.9230 C   0  0  0  0  0  0  0  0  0  0  0  0
  -13.1640  -14.1710   33.4810 C   0  0  0  0  0  0  0  0  0  0  0  0
  -12.0040  -14.6560   32.6640 C   0  0  0  0  0  0  0  0  0  0  0  0
  -10.9890  -15.2420   33.6000 S   0  0  0  0  0  0  0  0  0  0  0  0
  -13.4780  -14.2360   35.7240 H   0  0  0  0  0  0  0  0  0  0  0  0
  -11.9190  -14.5980   31.6360 H   0  0  0  0  0  0  0  0  0  0  0  0
  -10.8330  -15.5770   36.2480 C   0  0  0  0  0  3  0  0  0  0  0  0
  -10.1210  -14.9400   36.7290 H   0  0  0  0  0  0  0  0  0  0  0  0
  -10.6120  -14.6140   35.8380 H   0  0  0  0  0  0  0  0  0  0  0  0
  -11.1430  -16.9270   36.8220 N   0  0  0  0  0  2  0  0  0  0  0  0
  -11.9560  -17.4480   36.4930 H   0  0  0  0  0  0  0  0  0  0  0  0
  -10.2560  -17.5120   37.8820 C   0  0  0  0  0  2  0  0  0  0  0  0
  -10.5350  -17.4400   38.9120 H   0  0  0  0  0  0  0  0  0  0  0  0
  -11.1670  -17.0230   38.1570 H   0  0  0  0  0  0  0  0  0  0  0  0
   -8.9790  -18.1980   37.4970 C   0  0  0  0  0  3  0  0  0  0  0  0
   -8.8970  -18.6820   36.5460 H   0  0  0  0  0  0  0  0  0  0  0  0
   -9.8080  -18.1930   36.8200 H   0  0  0  0  0  0  0  0  0  0  0  0
   -7.8160  -18.2060   38.4440 S   0  0  2  0  0  0  0  0  0  0  0  0
   -7.4970  -16.7910   38.0640 O   0  0  0  0  0  0  0  0  0  0  0  0
   -8.1350  -19.6210   38.8240 O   0  0  0  0  0  0  0  0  0  0  0  0
   -6.6540  -18.2140   39.3920 C   0  0  0  0  0  0  0  0  0  0  0  0
   -6.4360  -19.0910   39.9650 H   0  0  0  0  0  0  0  0  0  0  0  0
   -6.0420  -17.3420   39.4950 H   0  0  0  0  0  0  0  0  0  0  0  0
   -5.8240  -18.2190   40.0680 H   0  0  0  0  0  0  0  0  0  0  0  0
  -18.3520  -11.4920   34.4770 N   0  0  0  0  0  0  0  0  0  0  0  0
  -18.4430  -10.5760   34.8270 H   0  0  0  0  0  0  0  0  0  0  0  0
  -18.6970  -12.6650   35.3460 C   0  0  0  0  0  0  0  0  0  0  0  0
  -18.7780  -14.0400   34.7520 C   0  0  0  0  0  0  0  0  0  0  0  0
  -19.1220  -15.2130   35.6220 C   0  0  0  0  0  0  0  0  0  0  0  0
  -19.3860  -15.0110   37.0840 C   0  0  0  0  0  0  0  0  0  0  0  0
  -19.3050  -13.6360   37.6780 C   0  0  0  0  0  0  0  0  0  0  0  0
  -19.5690  -13.4330   39.1400 Cl  0  0  0  0  0  0  0  0  0  0  0  0
  -18.9610  -12.4630   36.8090 C   0  0  0  0  0  0  0  0  0  0  0  0
  -18.5960  -14.1790   33.7460 H   0  0  0  0  0  0  0  0  0  0  0  0
  -19.1780  -16.1590   35.2130 H   0  0  0  0  0  0  0  0  0  0  0  0
  -18.9050  -11.5160   37.2170 H   0  0  0  0  0  0  0  0  0  0  0  0
  -19.7310  -16.1840   37.9530 O   0  0  0  0  0  0  0  0  0  0  0  0
  -18.7490  -16.6730   38.9760 C   0  0  0  0  0  0  0  0  0  0  0  0
  -19.0980  -17.1700   39.8580 H   0  0  0  0  0  0  0  0  0  0  0  0
  -18.0490  -17.0230   39.7070 H   0  0  0  0  0  0  0  0  0  0  0  0
  -17.2790  -16.4670   38.7640 C   0  0  0  0  0  0  0  0  0  0  0  0
  -16.5930  -17.1080   37.5950 C   0  0  0  0  0  0  0  0  0  0  0  0
  -15.1220  -16.9010   37.3820 C   0  0  0  0  0  0  0  0  0  0  0  0
  -14.3380  -16.0540   38.3390 C   0  0  0  0  0  0  0  0  0  0  0  0
  -15.0240  -15.4130   39.5090 C   0  0  0  0  0  0  0  0  0  0  0  0
  -14.2400  -14.5650   40.4660 F   0  0  0  0  0  0  0  0  0  0  0  0
  -16.4950  -15.6190   39.7210 C   0  0  0  0  0  0  0  0  0  0  0  0
  -17.1320  -17.6910   36.9360 H   0  0  0  0  0  0  0  0  0  0  0  0
  -14.6500  -17.3430   36.5770 H   0  0  0  0  0  0  0  0  0  0  0  0
  -13.3260  -15.9120   38.1930 H   0  0  0  0  0  0  0  0  0  0  0  0
  -16.9670  -15.1780   40.5260 H   0  0  0  0  0  0  0  0  0  0  0  0
  1 14  1  0
  1  2  2  0
  2 10  1  0
  3  4  1  0
  3  2  1  0
  4 37  1  0
  5  4  1  0
  6  5  2  0
  7  6  1  0
  7  8  1  0
  8  9  1  0
  8  3  2  0
  9  1  1  0
 11  6  1  0
 13 12  2  0
 13 17  1  0
 14 13  1  0
 15 14  2  0
 15 16  1  0
 16 12  1  0
 18 15  1  0
 19 20  1  0
 19 22  1  0
 21 19  1  0
 23 22  1  0
 24 26  1  0
 24 25  1  0
 27 30  1  0
 28 27  1  0
 29 27  1  0
 30 32  2  0
 30 33  1  0
 31 30  2  0
 33 35  1  0
 33 34  1  0
 33 36  1  0
 37 38  1  0
 37 39  1  0
 39 45  1  0
 40 39  2  0
 40 41  1  0
 41 42  2  0
 42 43  1  0
 42 49  1  0
 43 44  1  0
 45 48  1  0
 45 43  2  0
 46 40  1  0
 47 41  1  0
 49 50  1  0
 50 52  1  0
 50 51  1  0
 53 50  1  0
 53 59  1  0
 54 53  2  0
 55 54  1  0
 55 56  2  0
 56 57  1  0
 57 59  2  0
 57 58  1  0
 59 63  1  0
 60 54  1  0
 61 55  1  0
 62 56  1  0
M  END
>  <minimizedAffinity>  (108) 
-11.156024

$$$$

     RDKit          3D

 44 42  0  0  0  0  0  0  0  0999 V2000
  -16.6560  -13.5030   33.7950 C   0  0  0  0  0  2  0  0  0  0  0  0
  -15.4120  -14.2230   34.2240 C   0  0  0  0  0 15  0  0  0  0  0  0
  -14.1020  -13.9180   33.5610 C   0  0  0  0  0  3  0  0  0  0  0  0
  -14.0350  -12.8920   32.4680 C   0  0  0  0  0  3  0  0  0  0  0  0
  -15.2790  -12.1720   32.0390 C   0  0  0  0  0  1  0  0  0  0  0  0
  -15.2130  -11.1460   30.9460 O   0  0  0  0  0 15  0  0  0  0  0  0
  -16.5890  -12.4770   32.7020 N   0  0  0  0  0  0  0  0  0  0  0  0
  -14.1490  -14.6500   34.3400 H   0  0  0  0  0  0  0  0  0  0  0  0
  -13.1000  -12.6750   31.9950 H   0  0  0  0  0  0  0  0  0  0  0  0
  -13.9880  -12.1610   31.6890 H   0  0  0  0  0  0  0  0  0  0  0  0
  -17.4050  -12.0040   32.4210 H   0  0  0  0  0  0  0  0  0  0  0  0
  -12.8580  -14.6390   33.9900 C   0  0  0  0  0  0  0  0  0  0  0  0
  -11.8700  -15.1080   32.9620 C   0  0  0  0  0  0  0  0  0  0  0  0
  -10.6270  -15.8280   33.3910 C   0  0  0  0  0  0  0  0  0  0  0  0
  -10.3700  -16.0800   34.8480 C   0  0  0  0  0  0  0  0  0  0  0  0
   -9.1270  -16.8000   35.2770 Cl  0  0  0  0  0  0  0  0  0  0  0  0
  -11.3580  -15.6110   35.8750 C   0  0  0  0  0  0  0  0  0  0  0  0
  -11.1020  -15.8630   37.3310 Cl  0  0  0  0  0  0  0  0  0  0  0  0
  -12.6020  -14.8910   35.4460 C   0  0  0  0  0  0  0  0  0  0  0  0
  -12.0470  -14.9340   31.9600 H   0  0  0  0  0  0  0  0  0  0  0  0
   -9.9470  -16.1500   32.6850 H   0  0  0  0  0  0  0  0  0  0  0  0
  -13.2810  -14.5680   36.1530 H   0  0  0  0  0  0  0  0  0  0  0  0
  -17.9660  -13.8080   34.4590 C   0  0  0  0  0  0  0  0  0  0  0  0
  -18.0130  -14.5400   35.2380 H   0  0  0  0  0  0  0  0  0  0  0  0
  -18.8530  -13.2940   34.1520 H   0  0  0  0  0  0  0  0  0  0  0  0
  -18.9000  -14.0260   34.9310 H   0  0  0  0  0  0  0  0  0  0  0  0
  -15.4790  -15.2490   35.3160 C   0  0  0  0  0  2  0  0  0  0  0  0
  -15.4780  -16.7100   34.9750 O   0  0  0  0  0  1  0  0  0  0  0  0
  -15.5460  -14.8140   36.7500 N   0  0  0  0  0  0  0  0  0  0  0  0
  -15.5470  -13.8560   36.9750 H   0  0  0  0  0  0  0  0  0  0  0  0
  -15.6130  -15.8400   37.8430 C   0  0  0  0  0  0  0  0  0  0  0  0
  -14.3570  -16.4990   38.3310 C   0  0  0  0  0  0  0  0  0  0  0  0
  -14.4230  -17.5240   39.4230 C   0  0  0  0  0  0  0  0  0  0  0  0
  -15.7460  -17.8910   40.0270 C   0  0  0  0  0  0  0  0  0  0  0  0
  -16.1210  -18.8600   41.1100 N   0  0  0  0  0  0  0  0  0  0  0  0
  -17.6090  -18.8000   41.2920 N   0  0  0  0  0  0  0  0  0  0  0  0
  -18.1530  -17.7940   40.3210 C   0  0  0  0  0  0  0  0  0  0  0  0
  -17.0020  -17.2330   39.5400 C   0  0  0  0  0  0  0  0  0  0  0  0
  -16.9350  -16.2070   38.4470 C   0  0  0  0  0  0  0  0  0  0  0  0
  -13.4470  -16.2460   37.9150 H   0  0  0  0  0  0  0  0  0  0  0  0
  -13.5580  -17.9780   39.7590 H   0  0  0  0  0  0  0  0  0  0  0  0
  -15.4990  -19.4340   41.6130 H   0  0  0  0  0  0  0  0  0  0  0  0
  -19.1460  -17.5340   40.2100 H   0  0  0  0  0  0  0  0  0  0  0  0
  -17.8000  -15.7540   38.1120 H   0  0  0  0  0  0  0  0  0  0  0  0
  1 23  1  0
  3 12  1  0
  3  8  1  0
  4  3  1  0
  5  7  1  0
  7  1  1  0
  9  4  1  0
 10  4  1  0
 11  7  1  0
 12 19  1  0
 13 14  1  0
 13 12  2  0
 14 15  2  0
 15 16  1  0
 15 17  1  0
 17 18  1  0
 19 17  2  0
 19 22  1  0
 20 13  1  0
 21 14  1  0
 23 26  1  0
 23 24  1  0
 25 23  1  0
 27 29  1  0
 28 27  1  0
 29 30  1  0
 29 31  1  0
 31 32  2  0
 31 39  1  0
 32 33  1  0
 33 41  1  0
 33 34  2  0
 34 35  1  0
 35 36  1  0
 35 42  1  0
 37 36  2  0
 38 34  1  0
 38 37  1  0
 39 38  2  0
 40 32  1  0
 43 37  1  0
 44 39  1  0
M  END
>  <minimizedAffinity>  (109) 
-10.0191469

$$$$

     RDKit          3D

 64 59  0  0  0  0  0  0  0  0999 V2000
  -16.7920  -16.6400   38.4450 C   0  0  0  0  0  0  0  0  0  0  0  0
  -18.2730  -16.3990   38.4620 C   0  0  0  0  0  0  0  0  0  0  0  0
  -18.8840  -15.4200   37.5040 C   0  0  0  0  0  0  0  0  0  0  0  0
  -18.0150  -14.6820   36.5290 C   0  0  0  0  0  0  0  0  0  0  0  0
  -16.5340  -14.9230   36.5130 C   0  0  0  0  0  0  0  0  0  0  0  0
  -15.9230  -15.9020   37.4710 C   0  0  0  0  0  0  0  0  0  0  0  0
  -18.8710  -16.9070   39.1320 H   0  0  0  0  0  0  0  0  0  0  0  0
  -19.9030  -15.2540   37.5150 H   0  0  0  0  0  0  0  0  0  0  0  0
  -15.9360  -14.4150   35.8430 H   0  0  0  0  0  0  0  0  0  0  0  0
  -14.4430  -16.1430   37.4550 C   0  0  0  0  0  0  0  0  0  0  0  0
  -13.7770  -16.8020   38.6260 C   0  0  0  0  0  0  0  0  0  0  0  0
  -12.2970  -17.0430   38.6100 C   0  0  0  0  0  0  0  0  0  0  0  0
  -11.4820  -16.6250   37.4220 C   0  0  0  0  0  0  0  0  0  0  0  0
  -12.1480  -15.9660   36.2500 C   0  0  0  0  0  0  0  0  0  0  0  0
  -13.6280  -15.7250   36.2670 C   0  0  0  0  0  0  0  0  0  0  0  0
  -14.3380  -17.0890   39.4440 H   0  0  0  0  0  0  0  0  0  0  0  0
  -11.8390  -17.4960   39.4160 H   0  0  0  0  0  0  0  0  0  0  0  0
  -11.5870  -15.6790   35.4330 H   0  0  0  0  0  0  0  0  0  0  0  0
  -14.0860  -15.2720   35.4600 H   0  0  0  0  0  0  0  0  0  0  0  0
  -10.0020  -16.8660   37.4050 C   0  0  0  0  0  0  0  0  0  0  0  0
   -9.4260  -17.9360   36.5260 O   0  0  0  0  0  0  0  0  0  0  0  0
   -9.0970  -16.0380   38.2690 N   0  0  0  0  0  4  0  0  0  0  0  0
   -9.4750  -15.3360   38.8460 H   0  0  0  0  0  0  0  0  0  0  0  0
   -7.6170  -16.2790   38.2520 C   0  0  0  0  0  0  0  0  0  0  0  0
   -6.9600  -15.5500   37.8240 H   0  0  0  0  0  0  0  0  0  0  0  0
   -6.5600  -16.4510   38.2410 H   0  0  0  0  0  0  0  0  0  0  0  0
   -7.0560  -17.5420   38.8360 C   0  0  0  0  0 15  0  0  0  0  0  0
   -6.8460  -19.0250   38.7630 C   0  0  0  0  0  3  0  0  0  0  0  0
   -6.2950  -18.2460   39.9200 C   0  0  0  0  0  2  0  0  0  0  0  0
   -6.6560  -18.4430   39.2520 H   0  0  0  0  0  0  0  0  0  0  0  0
   -6.9870  -19.9570   38.2550 H   0  0  0  0  0  0  0  0  0  0  0  0
   -6.3580  -19.7520   39.3780 H   0  0  0  0  0  0  0  0  0  0  0  0
   -5.7550  -18.2150   40.8420 H   0  0  0  0  0  0  0  0  0  0  0  0
   -6.3000  -17.2160   40.2080 H   0  0  0  0  0  0  0  0  0  0  0  0
  -16.1810  -17.6190   39.4030 C   0  0  0  0  0  0  0  0  0  0  0  0
  -16.8020  -18.1460   40.0990 H   0  0  0  0  0  0  0  0  0  0  0  0
  -15.1250  -17.7910   39.3920 H   0  0  0  0  0  0  0  0  0  0  0  0
  -15.7460  -18.3180   40.0870 H   0  0  0  0  0  0  0  0  0  0  0  0
  -18.6260  -13.7020   35.5710 N   0  0  0  0  0  0  0  0  0  0  0  0
  -17.9620  -13.4270   34.2550 C   0  0  0  0  0  0  0  0  0  0  0  0
  -16.6860  -14.1310   33.8970 O   0  0  0  0  0  0  0  0  0  0  0  0
  -19.4630  -13.2400   35.8070 H   0  0  0  0  0  0  0  0  0  0  0  0
  -18.5730  -12.4480   33.2970 C   0  0  0  0  0  0  0  0  0  0  0  0
  -19.1830  -11.1770   33.8100 C   0  0  0  0  0  0  0  0  0  0  0  0
  -19.7940  -10.1980   32.8520 C   0  0  0  0  0  0  0  0  0  0  0  0
  -19.7950  -10.4890   31.3810 N   0  0  0  0  0  0  0  0  0  0  0  0
  -19.1840  -11.7600   30.8680 C   0  0  0  0  0  3  0  0  0  0  0  0
  -18.5730  -12.7390   31.8260 C   0  0  0  0  0  0  0  0  0  0  0  0
  -19.1830  -10.9770   34.8230 H   0  0  0  0  0  0  0  0  0  0  0  0
  -20.2140   -9.3240   33.2060 H   0  0  0  0  0  0  0  0  0  0  0  0
  -18.1530  -13.6130   31.4720 H   0  0  0  0  0  0  0  0  0  0  0  0
  -19.1850  -12.0510   29.3960 N   0  0  0  0  0  1  0  0  0  0  0  0
  -19.2390  -13.4110   28.7670 C   0  0  0  0  0  3  0  0  0  0  0  0
  -19.2190  -13.2340   27.2770 C   0  0  0  0  0  2  0  0  0  0  0  0
  -19.1530  -11.7640   26.9860 C   0  0  0  0  0  2  0  0  0  0  0  0
  -19.1320  -11.0330   28.2960 C   0  0  0  0  0  2  0  0  0  0  0  0
  -19.2840  -14.3450   29.2880 H   0  0  0  0  0  0  0  0  0  0  0  0
  -19.2730  -14.3000   28.1710 H   0  0  0  0  0  0  0  0  0  0  0  0
  -19.2470  -14.0180   26.5500 H   0  0  0  0  0  0  0  0  0  0  0  0
  -19.1980  -12.9430   26.2480 H   0  0  0  0  0  0  0  0  0  0  0  0
  -19.1260  -11.3150   26.0150 H   0  0  0  0  0  0  0  0  0  0  0  0
  -19.1070  -10.6960   26.9450 H   0  0  0  0  0  0  0  0  0  0  0  0
  -19.0870   -9.9710   28.4220 H   0  0  0  0  0  0  0  0  0  0  0  0
  -19.1240  -10.6640   29.3000 H   0  0  0  0  0  0  0  0  0  0  0  0
  1  2  1  0
  1 35  1  0
  2  7  1  0
  3  8  1  0
  3  2  2  0
  4  3  1  0
  5  4  2  0
  5  6  1  0
  6  1  2  0
  9  5  1  0
 10  6  1  0
 10 11  1  0
 11 16  1  0
 12 11  2  0
 12 17  1  0
 13 12  1  0
 14 15  1  0
 14 13  2  0
 15 10  2  0
 18 14  1  0
 19 15  1  0
 20 13  1  0
 20 22  1  0
 21 20  2  0
 22 23  1  0
 24 22  2  0
 25 24  1  0
 26 24  1  0
 28 30  1  0
 28 32  1  0
 29 34  1  0
 29 33  1  0
 31 28  1  0
 35 38  1  0
 35 36  1  0
 37 35  1  0
 39 42  1  0
 39  4  1  0
 40 39  1  0
 41 40  2  0
 43 44  1  0
 43 40  1  0
 44 49  1  0
 45 50  1  0
 45 44  2  0
 46 45  1  0
 47 46  2  0
 47 48  1  0
 48 43  2  0
 51 48  1  0
 53 57  1  0
 53 52  1  0
 56 63  1  0
 56 64  1  0
 58 53  1  0
 59 54  1  0
 60 54  1  0
 61 55  1  0
 62 55  1  0
M  END
>  <minimizedAffinity>  (110) 
-8.46930885

$$$$

     RDKit          3D

 40 32  0  0  0  0  0  0  0  0999 V2000
  -12.1770  -16.6730   37.1190 N   0  0  0  0  0  0  0  0  0  0  0  0
  -11.3890  -15.8150   36.1740 C   0  0  0  0  0  0  0  0  0  0  0  0
  -11.9890  -14.5530   35.6290 O   0  0  0  0  0  0  0  0  0  0  0  0
  -11.7830  -17.5010   37.4770 H   0  0  0  0  0  0  0  0  0  0  0  0
  -14.0390  -16.0170   38.9200 C   0  0  0  0  0  0  0  0  0  0  0  0
  -13.5650  -16.2680   37.5200 C   0  0  0  0  0  0  0  0  0  0  0  0
  -14.7200  -16.0430   36.5900 S   0  0  0  0  0  0  0  0  0  0  0  0
  -15.9100  -15.6530   37.4160 C   0  0  0  0  0  3  0  0  0  0  0  0
  -15.4900  -15.6370   38.8560 C   0  0  0  0  0  0  0  0  0  0  0  0
  -16.4810  -15.2780   39.9230 C   0  0  0  0  0  3  0  0  0  0  0  0
  -17.8930  -14.9360   39.5500 C   0  0  0  0  0  2  0  0  0  0  0  0
  -18.3130  -14.9520   38.1100 C   0  0  0  0  0  2  0  0  0  0  0  0
  -17.3220  -15.3100   37.0430 C   0  0  0  0  0  2  0  0  0  0  0  0
  -16.1810  -15.2670   40.9500 H   0  0  0  0  0  0  0  0  0  0  0  0
  -17.1890  -15.0220   40.6840 H   0  0  0  0  0  0  0  0  0  0  0  0
  -18.6010  -14.6800   40.3110 H   0  0  0  0  0  0  0  0  0  0  0  0
  -18.9010  -14.6910   39.2840 H   0  0  0  0  0  0  0  0  0  0  0  0
  -19.3210  -14.7070   37.8440 H   0  0  0  0  0  0  0  0  0  0  0  0
  -18.6130  -14.9630   37.0830 H   0  0  0  0  0  0  0  0  0  0  0  0
  -17.6220  -15.3220   36.0160 H   0  0  0  0  0  0  0  0  0  0  0  0
  -16.6140  -15.5660   36.2820 H   0  0  0  0  0  0  0  0  0  0  0  0
  -12.3830  -16.2360   41.4120 N   0  0  0  0  0  1  0  0  0  0  0  0
  -13.2120  -16.1270   40.1660 C   0  0  0  0  0  2  0  0  0  0  0  0
  -10.0010  -16.2200   35.7730 C   0  0  0  0  0  3  0  0  0  0  0  0
   -9.6850  -16.1110   34.7570 H   0  0  0  0  0  0  0  0  0  0  0  0
   -9.0120  -16.5090   35.4870 H   0  0  0  0  0  0  0  0  0  0  0  0
   -9.0580  -16.7780   36.7970 N   0  0  0  0  0 15  0  0  0  0  0  0
   -8.9270  -18.2630   36.9650 C   0  0  0  0  0  2  0  0  0  0  0  0
   -7.9830  -18.8210   37.9890 C   0  0  0  0  0  2  0  0  0  0  0  0
   -7.1710  -17.8940   38.8450 O   0  0  0  0  0  1  0  0  0  0  0  0
   -7.3020  -16.4100   38.6760 C   0  0  0  0  0  3  0  0  0  0  0  0
   -8.2460  -15.8520   37.6520 C   0  0  0  0  0  2  0  0  0  0  0  0
   -9.5060  -18.9240   36.3550 H   0  0  0  0  0  0  0  0  0  0  0  0
   -8.8330  -19.3220   37.0860 H   0  0  0  0  0  0  0  0  0  0  0  0
   -7.8890  -19.8800   38.1090 H   0  0  0  0  0  0  0  0  0  0  0  0
   -7.3100  -19.2190   38.7200 H   0  0  0  0  0  0  0  0  0  0  0  0
   -6.7230  -15.7490   39.2870 H   0  0  0  0  0  0  0  0  0  0  0  0
   -7.3960  -15.3500   38.5560 H   0  0  0  0  0  0  0  0  0  0  0  0
   -8.3400  -14.7920   37.5320 H   0  0  0  0  0  0  0  0  0  0  0  0
   -8.9190  -15.4530   36.9220 H   0  0  0  0  0  0  0  0  0  0  0  0
  1  4  1  0
  1  6  1  0
  2  1  1  0
  3  2  2  0
  5 23  1  0
  6  5  2  0
  7  8  1  0
  7  6  1  0
  8  9  2  0
  9  5  1  0
  9 10  1  0
 10 15  1  0
 10 14  1  0
 11 16  1  0
 17 11  1  0
 18 12  1  0
 19 12  1  0
 20 13  1  0
 21 13  1  0
 23 22  1  0
 24  2  1  0
 25 24  1  0
 26 24  1  0
 28 34  1  0
 29 35  1  0
 29 36  1  0
 31 30  1  0
 31 37  1  0
 33 28  1  0
 38 31  1  0
 39 32  1  0
 40 32  1  0
M  END
>  <minimizedAffinity>  (111) 
-8.03283691

$$$$

     RDKit          3D

 38 40  0  0  0  0  0  0  0  0999 V2000
  -10.9120  -15.1430   34.3810 N   0  0  0  0  0  0  0  0  0  0  0  0
  -12.3370  -14.7400   34.1440 C   0  0  0  0  0  0  0  0  0  0  0  0
  -13.4090  -15.1770   35.0970 N   0  0  0  0  0  0  0  0  0  0  0  0
  -14.8340  -14.7730   34.8600 C   0  0  0  0  0  0  0  0  0  0  0  0
  -15.1870  -13.9320   33.6680 C   0  0  0  0  0  0  0  0  0  0  0  0
  -14.1150  -13.4950   32.7150 C   0  0  0  0  0  0  0  0  0  0  0  0
  -14.4670  -12.6550   31.5240 N   0  0  0  0  0  0  0  0  0  0  0  0
  -12.6900  -13.8990   32.9520 N   0  0  0  0  0  0  0  0  0  0  0  0
  -10.2080  -14.8570   33.7560 H   0  0  0  0  0  0  0  0  0  0  0  0
  -15.5720  -15.0740   35.5160 H   0  0  0  0  0  0  0  0  0  0  0  0
  -16.1670  -13.6550   33.5050 H   0  0  0  0  0  0  0  0  0  0  0  0
  -13.7640  -12.3680   30.8980 H   0  0  0  0  0  0  0  0  0  0  0  0
  -15.8920  -12.2510   31.2860 C   0  0  0  0  0  0  0  0  0  0  0  0
  -16.4120  -10.9650   31.8550 C   0  0  0  0  0  0  0  0  0  0  0  0
  -17.8370  -10.5610   31.6180 C   0  0  0  0  0  0  0  0  0  0  0  0
  -18.7420  -11.4440   30.8110 C   0  0  0  0  0  0  0  0  0  0  0  0
  -18.2220  -12.7310   30.2410 C   0  0  0  0  0  0  0  0  0  0  0  0
  -19.1270  -13.6140   29.4340 F   0  0  0  0  0  0  0  0  0  0  0  0
  -16.7970  -13.1340   30.4790 C   0  0  0  0  0  0  0  0  0  0  0  0
  -15.7900  -10.3570   32.4100 H   0  0  0  0  0  0  0  0  0  0  0  0
  -18.1950   -9.6760   32.0090 H   0  0  0  0  0  0  0  0  0  0  0  0
  -19.7230  -11.1670   30.6470 H   0  0  0  0  0  0  0  0  0  0  0  0
  -16.4390  -14.0200   30.0870 H   0  0  0  0  0  0  0  0  0  0  0  0
  -11.0750  -16.7950   37.9860 C   0  0  0  0  0  0  0  0  0  0  0  0
   -9.8540  -17.6650   37.9550 C   0  0  0  0  0  0  0  0  0  0  0  0
   -8.9840  -17.6940   36.7330 C   0  0  0  0  0  0  0  0  0  0  0  0
   -9.3370  -16.8530   35.5410 C   0  0  0  0  0  0  0  0  0  0  0  0
  -10.5590  -15.9840   35.5720 C   0  0  0  0  0  0  0  0  0  0  0  0
  -11.4280  -15.9550   36.7950 C   0  0  0  0  0  0  0  0  0  0  0  0
   -9.6110  -18.2430   38.7740 H   0  0  0  0  0  0  0  0  0  0  0  0
   -8.1440  -18.2920   36.7110 H   0  0  0  0  0  0  0  0  0  0  0  0
   -8.7390  -16.8730   34.7000 H   0  0  0  0  0  0  0  0  0  0  0  0
  -12.2690  -15.3560   36.8160 H   0  0  0  0  0  0  0  0  0  0  0  0
  -13.2590  -17.4890   39.2110 N   0  0  0  0  0  0  0  0  0  0  0  0
  -11.9450  -16.7660   39.2080 C   0  0  0  0  0  0  0  0  0  0  0  0
  -11.4990  -16.0140   40.4270 O   0  0  0  0  0  0  0  0  0  0  0  0
  -13.5510  -17.9830   38.4110 H   0  0  0  0  0  0  0  0  0  0  0  0
  -13.8290  -17.4700   40.0130 H   0  0  0  0  0  0  0  0  0  0  0  0
  1 28  1  0
  2  1  1  0
  2  3  2  0
  4  3  1  0
  4 10  1  0
  5  4  2  0
  6  8  2  0
  6  5  1  0
  7  6  1  0
  8  2  1  0
  9  1  1  0
 11  5  1  0
 12  7  1  0
 13  7  1  0
 13 14  1  0
 14 20  1  0
 15 14  2  0
 15 21  1  0
 16 15  1  0
 17 19  1  0
 17 16  2  0
 18 17  1  0
 19 13  2  0
 22 16  1  0
 23 19  1  0
 24 35  1  0
 25 24  1  0
 25 30  1  0
 26 25  2  0
 27 28  2  0
 27 26  1  0
 28 29  1  0
 29 33  1  0
 29 24  2  0
 31 26  1  0
 32 27  1  0
 34 38  1  0
 35 34  1  0
 35 36  2  0
 37 34  1  0
M  END
>  <minimizedAffinity>  (112) 
-8.47560406

$$$$

     RDKit          3D

 56 58  0  0  0  0  0  0  0  0999 V2000
  -19.3280  -12.6870   35.4490 C   0  0  0  0  0  0  0  0  0  0  0  0
  -19.0870  -14.1500   35.2260 C   0  0  0  0  0  0  0  0  0  0  0  0
  -18.6200  -15.0140   36.3600 C   0  0  0  0  0  0  0  0  0  0  0  0
  -18.3950  -14.4150   37.7160 C   0  0  0  0  0  0  0  0  0  0  0  0
  -18.6370  -12.9520   37.9390 C   0  0  0  0  0  0  0  0  0  0  0  0
  -19.1040  -12.0870   36.8050 C   0  0  0  0  0  0  0  0  0  0  0  0
  -19.2410  -14.5630   34.2920 H   0  0  0  0  0  0  0  0  0  0  0  0
  -18.4540  -16.0210   36.2070 H   0  0  0  0  0  0  0  0  0  0  0  0
  -18.4820  -12.5390   38.8730 H   0  0  0  0  0  0  0  0  0  0  0  0
  -19.2700  -11.0810   36.9580 H   0  0  0  0  0  0  0  0  0  0  0  0
  -19.4840  -10.9190   31.8990 N   0  0  0  0  0  0  0  0  0  0  0  0
  -19.0170  -11.7830   33.0330 C   0  0  0  0  0  0  0  0  0  0  0  0
  -17.7730  -12.6070   32.8850 O   0  0  0  0  0  0  0  0  0  0  0  0
  -19.7950  -11.8230   34.3150 N   0  0  0  0  0  0  0  0  0  0  0  0
  -20.3010  -10.3770   31.9960 H   0  0  0  0  0  0  0  0  0  0  0  0
  -20.6120  -11.2810   34.4120 H   0  0  0  0  0  0  0  0  0  0  0  0
  -18.3760  -11.6580   28.1610 C   0  0  0  0  0  3  0  0  0  0  0  0
  -17.1510  -10.8000   28.0530 C   0  0  0  0  0  0  0  0  0  0  0  0
  -16.7030   -9.9810   29.2270 C   0  0  0  0  0  0  0  0  0  0  0  0
  -17.4810  -10.0210   30.5090 C   0  0  0  0  0  0  0  0  0  0  0  0
  -18.7060  -10.8790   30.6170 C   0  0  0  0  0  0  0  0  0  0  0  0
  -19.1540  -11.6980   29.4430 C   0  0  0  0  0  0  0  0  0  0  0  0
  -16.6160  -10.7720   27.1710 H   0  0  0  0  0  0  0  0  0  0  0  0
  -15.8600   -9.3900   29.1530 H   0  0  0  0  0  0  0  0  0  0  0  0
  -17.1730   -9.4570   31.3180 H   0  0  0  0  0  0  0  0  0  0  0  0
  -19.9970  -12.2890   29.5170 H   0  0  0  0  0  0  0  0  0  0  0  0
  -18.8240  -12.4770   26.9860 C   0  0  0  0  0  3  0  0  0  0  0  0
  -19.0530  -11.9990   26.0570 H   0  0  0  0  0  0  0  0  0  0  0  0
  -18.7340  -11.4150   26.8950 H   0  0  0  0  0  0  0  0  0  0  0  0
  -18.9500  -13.9660   27.1150 C   0  0  0  0  0  0  0  0  0  0  0  0
  -18.7210  -14.4440   28.0430 H   0  0  0  0  0  0  0  0  0  0  0  0
  -19.2690  -14.5500   26.2760 H   0  0  0  0  0  0  0  0  0  0  0  0
  -19.0400  -15.0280   27.2060 H   0  0  0  0  0  0  0  0  0  0  0  0
  -17.9290  -15.2790   38.8500 O   0  0  0  0  0  0  0  0  0  0  0  0
  -16.4690  -15.5910   39.0040 C   0  0  0  0  0  0  0  0  0  0  0  0
  -15.7940  -15.3830   40.3270 C   0  0  0  0  0  0  0  0  0  0  0  0
  -14.3350  -15.6950   40.4820 C   0  0  0  0  0  0  0  0  0  0  0  0
  -13.5510  -16.2140   39.3130 C   0  0  0  0  0  0  0  0  0  0  0  0
  -12.1110  -16.6060   39.1650 N   0  0  0  0  0  0  0  0  0  0  0  0
  -11.8960  -17.0560   37.7500 C   0  0  0  0  0  0  0  0  0  0  0  0
  -10.6010  -17.5350   37.1640 N   0  0  0  0  0  0  0  0  0  0  0  0
   -9.3690  -17.5950   38.0170 C   0  0  0  0  0  0  0  0  0  0  0  0
   -9.4310  -17.1760   39.4560 O   0  0  0  0  0  0  0  0  0  0  0  0
  -13.2040  -16.9420   37.0240 N   0  0  0  0  0  0  0  0  0  0  0  0
  -14.2270  -16.4210   37.9900 C   0  0  0  0  0  0  0  0  0  0  0  0
  -15.6860  -16.1100   37.8350 C   0  0  0  0  0  0  0  0  0  0  0  0
  -16.3330  -15.0260   41.1320 H   0  0  0  0  0  0  0  0  0  0  0  0
  -13.8700  -15.5520   41.3920 H   0  0  0  0  0  0  0  0  0  0  0  0
  -10.5600  -17.8110   36.2190 H   0  0  0  0  0  0  0  0  0  0  0  0
  -13.3630  -17.1680   36.0790 H   0  0  0  0  0  0  0  0  0  0  0  0
  -16.1510  -16.2530   36.9250 H   0  0  0  0  0  0  0  0  0  0  0  0
   -8.0740  -18.0750   37.4320 O   0  0  0  0  0  0  0  0  0  0  0  0
   -7.1140  -18.8600   38.2760 C   0  0  0  0  0  0  0  0  0  0  0  0
   -7.3530  -19.0770   39.2960 H   0  0  0  0  0  0  0  0  0  0  0  0
   -6.1900  -19.2020   37.8580 H   0  0  0  0  0  0  0  0  0  0  0  0
   -6.4290  -19.4190   38.8780 H   0  0  0  0  0  0  0  0  0  0  0  0
  1  6  1  0
  2  1  2  0
  2  3  1  0
  3  4  2  0
  4  5  1  0
  4 34  1  0
  5  9  1  0
  6 10  1  0
  6  5  2  0
  7  2  1  0
  8  3  1  0
 11 15  1  0
 11 12  1  0
 12 14  1  0
 13 12  2  0
 14 16  1  0
 14  1  1  0
 17 22  1  0
 18 17  2  0
 18 19  1  0
 19 20  2  0
 20 21  1  0
 20 25  1  0
 21 11  1  0
 22 26  1  0
 22 21  2  0
 23 18  1  0
 24 19  1  0
 27 30  1  0
 28 27  1  0
 29 27  1  0
 30 33  1  0
 30 31  1  0
 32 30  1  0
 34 35  1  0
 35 36  1  0
 36 37  2  0
 36 47  1  0
 37 48  1  0
 38 37  1  0
 39 38  1  0
 40 39  2  0
 41 40  1  0
 41 42  1  0
 42 43  2  0
 44 40  1  0
 44 45  1  0
 45 38  2  0
 46 45  1  0
 46 35  2  0
 49 41  1  0
 50 44  1  0
 51 46  1  0
 52 42  1  0
 52 53  1  0
 53 56  1  0
 53 54  1  0
 55 53  1  0
M  END
>  <minimizedAffinity>  (113) 
-7.18053579

$$$$

     RDKit          3D

 52 56  0  0  0  0  0  0  0  0999 V2000
  -16.2520  -15.7460   36.0020 C   0  0  0  0  0  0  0  0  0  0  0  0
  -15.1640  -15.3900   35.0330 C   0  0  0  0  0  0  0  0  0  0  0  0
  -13.7270  -15.6090   35.4050 C   0  0  0  0  0  0  0  0  0  0  0  0
  -13.3790  -16.1830   36.7460 C   0  0  0  0  0  0  0  0  0  0  0  0
  -14.4670  -16.5390   37.7150 C   0  0  0  0  0  0  0  0  0  0  0  0
  -13.8230  -17.0850   38.9550 C   0  0  0  0  0  0  0  0  0  0  0  0
  -12.3370  -17.0670   38.7520 N   0  0  0  0  0  0  0  0  0  0  0  0
  -12.0620  -16.5090   37.3870 N   0  0  0  0  0  0  0  0  0  0  0  0
  -15.9040  -16.3210   37.3430 C   0  0  0  0  0  0  0  0  0  0  0  0
  -15.4040  -14.9940   34.1110 H   0  0  0  0  0  0  0  0  0  0  0  0
  -12.9780  -15.3640   34.7380 H   0  0  0  0  0  0  0  0  0  0  0  0
  -14.3170  -17.4160   39.7990 H   0  0  0  0  0  0  0  0  0  0  0  0
  -16.6530  -16.5660   38.0100 H   0  0  0  0  0  0  0  0  0  0  0  0
  -10.7090  -16.3120   36.7710 C   0  0  0  0  0  0  0  0  0  0  0  0
  -10.6100  -15.7500   35.8660 H   0  0  0  0  0  0  0  0  0  0  0  0
   -9.7430  -16.1720   36.3310 H   0  0  0  0  0  0  0  0  0  0  0  0
   -9.4950  -16.9040   37.4230 C   0  0  0  0  0  0  0  0  0  0  0  0
   -8.5230  -16.0180   38.1430 C   0  0  0  0  0  0  0  0  0  0  0  0
   -7.3080  -16.6090   38.7950 C   0  0  0  0  0  0  0  0  0  0  0  0
   -7.0660  -18.0880   38.7260 C   0  0  0  0  0  0  0  0  0  0  0  0
   -8.0370  -18.9750   38.0060 C   0  0  0  0  0  0  0  0  0  0  0  0
   -9.2520  -18.3830   37.3540 C   0  0  0  0  0  0  0  0  0  0  0  0
   -8.6900  -15.0000   38.1910 H   0  0  0  0  0  0  0  0  0  0  0  0
   -6.6400  -15.9990   39.2910 H   0  0  0  0  0  0  0  0  0  0  0  0
   -6.2300  -18.4950   39.1750 H   0  0  0  0  0  0  0  0  0  0  0  0
   -7.8710  -19.9920   37.9580 H   0  0  0  0  0  0  0  0  0  0  0  0
   -9.9210  -18.9930   36.8590 H   0  0  0  0  0  0  0  0  0  0  0  0
  -17.6890  -15.5270   35.6310 N   0  0  0  0  0  0  0  0  0  0  0  0
  -18.2360  -16.2820   35.3150 H   0  0  0  0  0  0  0  0  0  0  0  0
  -18.4320  -11.4670   32.1350 C   0  0  0  0  0  0  0  0  0  0  0  0
  -18.9880  -10.9950   33.4460 C   0  0  0  0  0  0  0  0  0  0  0  0
  -18.9410  -11.8920   34.6470 C   0  0  0  0  0  0  0  0  0  0  0  0
  -19.4970  -11.4190   35.9580 N   0  0  0  0  0  0  0  0  0  0  0  0
  -19.4500  -12.3160   37.1590 C   0  0  0  0  0  0  0  0  0  0  0  0
  -18.8470  -13.6850   37.0500 N   0  0  0  0  0  0  0  0  0  0  0  0
  -18.2910  -14.1580   35.7400 C   0  0  0  0  0  0  0  0  0  0  0  0
  -18.3380  -13.2610   34.5380 C   0  0  0  0  0  0  0  0  0  0  0  0
  -17.7830  -13.7330   33.2280 C   0  0  0  0  0  0  0  0  0  0  0  0
  -17.8290  -12.8360   32.0260 C   0  0  0  0  0  0  0  0  0  0  0  0
  -19.4030  -10.0530   33.5210 H   0  0  0  0  0  0  0  0  0  0  0  0
  -19.8320  -11.9910   38.0610 H   0  0  0  0  0  0  0  0  0  0  0  0
  -17.3680  -14.6750   33.1520 H   0  0  0  0  0  0  0  0  0  0  0  0
  -18.4790  -10.5700   30.9340 O   0  0  0  0  0  0  0  0  0  0  0  0
  -19.7950  -10.2490   30.2890 C   0  0  0  0  0  0  0  0  0  0  0  0
  -19.8280   -9.6090   29.4320 H   0  0  0  0  0  0  0  0  0  0  0  0
  -20.6990  -10.6580   30.6860 H   0  0  0  0  0  0  0  0  0  0  0  0
  -20.7330  -10.0190   29.8290 H   0  0  0  0  0  0  0  0  0  0  0  0
  -17.2740  -13.3090   30.7150 O   0  0  0  0  0  0  0  0  0  0  0  0
  -15.8530  -12.9990   30.3480 C   0  0  0  0  0  0  0  0  0  0  0  0
  -15.2360  -12.4410   31.0200 H   0  0  0  0  0  0  0  0  0  0  0  0
  -15.4560  -13.3360   29.4130 H   0  0  0  0  0  0  0  0  0  0  0  0
  -14.8390  -12.7780   30.0860 H   0  0  0  0  0  0  0  0  0  0  0  0
  1  9  1  0
  2  3  1  0
  2  1  2  0
  3  4  2  0
  4  8  1  0
  4  5  1  0
  5  6  1  0
  6 12  1  0
  7  6  2  0
  8  7  1  0
  9  5  2  0
  9 13  1  0
 10  2  1  0
 11  3  1  0
 14  8  1  0
 14 17  1  0
 15 14  1  0
 16 14  1  0
 17 18  1  0
 18 23  1  0
 18 19  2  0
 19 24  1  0
 20 19  1  0
 20 25  1  0
 21 20  2  0
 22 17  2  0
 22 21  1  0
 26 21  1  0
 27 22  1  0
 28 36  1  0
 28  1  1  0
 29 28  1  0
 30 31  1  0
 31 40  1  0
 31 32  2  0
 32 33  1  0
 33 34  2  0
 34 41  1  0
 35 34  1  0
 36 35  2  0
 37 32  1  0
 37 36  1  0
 38 37  2  0
 39 30  2  0
 39 38  1  0
 42 38  1  0
 43 30  1  0
 44 46  1  0
 44 43  1  0
 45 44  1  0
 47 44  1  0
 48 39  1  0
 49 48  1  0
 49 50  1  0
 51 49  1  0
 52 49  1  0
M  END
>  <minimizedAffinity>  (114) 
-8.91240883

$$$$

     RDKit          3D

 80 75  0  0  1  0  0  0  0  0999 V2000
  -18.1710  -11.0480   32.2930 C   0  0  0  0  0  0  0  0  0  0  0  0
  -17.5670  -11.6490   31.0580 C   0  0  0  0  0  3  0  0  0  0  0  0
  -16.3160  -12.4710   31.1600 C   0  0  0  0  0 15  0  0  0  0  0  0
  -15.6690  -12.6910   32.4950 C   0  0  0  0  0  3  0  0  0  0  0  0
  -16.2740  -12.0900   33.7290 C   0  0  0  0  0  0  0  0  0  0  0  0
  -17.5250  -11.2690   33.6280 C   0  0  0  0  0  0  0  0  0  0  0  0
  -14.4510  -13.5400   32.2870 N   0  0  0  0  0  0  0  0  0  0  0  0
  -13.5050  -14.0040   33.3540 C   0  0  0  0  0  0  0  0  0  0  0  0
  -13.7420  -13.6180   34.7840 O   0  0  0  0  0  0  0  0  0  0  0  0
  -14.3440  -13.8450   30.8210 C   0  0  0  0  0  3  0  0  0  0  0  0
  -15.4970  -13.1830   30.1250 C   0  0  0  0  0  2  0  0  0  0  0  0
  -18.0110  -11.4980   30.1400 H   0  0  0  0  0  0  0  0  0  0  0  0
  -15.8290  -12.2420   34.6480 H   0  0  0  0  0  0  0  0  0  0  0  0
  -13.5800  -14.4310   30.3550 H   0  0  0  0  0  0  0  0  0  0  0  0
  -14.4080  -13.9710   29.7610 H   0  0  0  0  0  0  0  0  0  0  0  0
  -15.6990  -13.2150   29.0750 H   0  0  0  0  0  0  0  0  0  0  0  0
  -16.3630  -12.6580   29.7810 H   0  0  0  0  0  0  0  0  0  0  0  0
  -18.1290  -10.6680   34.8620 N   0  0  0  0  0  4  0  0  0  0  0  0
  -18.3710  -11.5220   36.0710 C   0  0  0  0  0  0  0  0  0  0  0  0
  -18.0080  -12.9770   36.0460 N   0  0  0  0  0  0  0  0  0  0  0  0
  -18.2500  -13.8320   37.2550 C   0  0  0  0  0  3  0  0  0  0  0  0
  -18.8550  -13.2310   38.4890 C   0  0  0  0  0  0  0  0  0  0  0  0
  -19.2070  -13.8200   39.8240 C   0  0  0  0  0  0  0  0  0  0  0  0
  -19.7880  -12.7280   40.6730 C   0  0  0  0  0  0  0  0  0  0  0  0
  -19.7950  -11.4640   39.8640 N   0  0  0  0  0  0  0  0  0  0  0  0
  -19.2180  -11.7750   38.5140 C   0  0  0  0  0  0  0  0  0  0  0  0
  -18.9760  -10.9210   37.3050 N   0  0  0  0  0  2  0  0  0  0  0  0
  -18.3670   -9.7130   34.8790 H   0  0  0  0  0  0  0  0  0  0  0  0
  -19.0740  -14.8030   40.1070 H   0  0  0  0  0  0  0  0  0  0  0  0
  -20.1250  -12.8290   41.6440 H   0  0  0  0  0  0  0  0  0  0  0  0
  -20.1200  -10.5860   40.1660 H   0  0  0  0  0  0  0  0  0  0  0  0
  -17.8870  -15.2870   37.2300 N   0  0  0  0  0  0  0  0  0  0  0  0
  -18.4380  -15.9220   36.7200 H   0  0  0  0  0  0  0  0  0  0  0  0
  -16.6840  -15.7730   37.9830 C   0  0  0  0  0  0  0  0  0  0  0  0
  -15.3290  -15.2030   37.6810 C   0  0  0  0  0  0  0  0  0  0  0  0
  -14.1260  -15.6890   38.4340 C   0  0  0  0  0  0  0  0  0  0  0  0
  -14.2770  -16.7450   39.4880 C   0  0  0  0  0  0  0  0  0  0  0  0
  -15.6320  -17.3150   39.7900 C   0  0  0  0  0  0  0  0  0  0  0  0
  -15.7830  -18.3720   40.8440 F   0  0  0  0  0  0  0  0  0  0  0  0
  -16.8360  -16.8290   39.0370 C   0  0  0  0  0  0  0  0  0  0  0  0
  -15.2250  -14.4760   36.9560 H   0  0  0  0  0  0  0  0  0  0  0  0
  -13.1950  -15.2970   38.2260 H   0  0  0  0  0  0  0  0  0  0  0  0
  -13.4510  -17.0800   40.0060 H   0  0  0  0  0  0  0  0  0  0  0  0
  -18.1900  -17.3990   39.3380 C   0  0  0  0  0  0  0  0  0  0  0  0
  -18.3490  -18.4190   40.4270 N   0  0  0  0  0  0  0  0  0  0  0  0
  -19.3850  -16.9500   38.5510 O   0  0  0  0  0  0  0  0  0  0  0  0
  -19.2370  -18.7930   40.6250 H   0  0  0  0  0  0  0  0  0  0  0  0
  -17.5650  -18.7140   40.9430 H   0  0  0  0  0  0  0  0  0  0  0  0
  -12.3230  -14.8530   32.9920 C   0  0  0  0  0  3  0  0  0  0  0  0
  -12.0970  -15.0450   31.9640 H   0  0  0  0  0  0  0  0  0  0  0  0
  -11.4790  -15.4590   32.7330 H   0  0  0  0  0  0  0  0  0  0  0  0
  -11.4570  -15.4330   34.0710 N   0  0  0  0  0 15  0  0  0  0  0  0
  -10.1550  -16.0880   33.7170 C   0  0  0  0  0  2  0  0  0  0  0  0
   -9.2900  -16.6680   34.7960 C   0  0  0  0  0  2  0  0  0  0  0  0
   -9.7250  -16.5920   36.2300 N   0  0  0  0  0  2  0  0  0  0  0  0
  -11.0270  -15.9350   36.5840 C   0  0  0  0  0  3  0  0  0  0  0  0
  -11.8930  -15.3560   35.5040 C   0  0  0  0  0  2  0  0  0  0  0  0
   -9.8440  -16.1430   32.6940 H   0  0  0  0  0  0  0  0  0  0  0  0
   -9.2270  -16.5560   33.4650 H   0  0  0  0  0  0  0  0  0  0  0  0
   -8.3610  -17.1350   34.5430 H   0  0  0  0  0  0  0  0  0  0  0  0
   -8.6720  -17.0810   35.5660 H   0  0  0  0  0  0  0  0  0  0  0  0
  -11.3380  -15.8810   37.6060 H   0  0  0  0  0  0  0  0  0  0  0  0
  -11.9560  -15.4680   36.8360 H   0  0  0  0  0  0  0  0  0  0  0  0
  -12.8220  -14.8880   35.7570 H   0  0  0  0  0  0  0  0  0  0  0  0
  -12.5110  -14.9430   34.7350 H   0  0  0  0  0  0  0  0  0  0  0  0
   -8.8600  -17.1710   37.3080 C   0  0  0  0  0  0  0  0  0  0  0  0
   -8.2420  -17.5850   38.0790 H   0  0  0  0  0  0  0  0  0  0  0  0
   -8.9170  -18.6390   37.6080 C   0  0  0  0  0  0  0  0  0  0  0  0
   -9.5750  -19.2730   37.0510 H   0  0  0  0  0  0  0  0  0  0  0  0
   -8.2990  -19.0530   38.3780 H   0  0  0  0  0  0  0  0  0  0  0  0
   -8.9570  -19.6870   37.8220 H   0  0  0  0  0  0  0  0  0  0  0  0
   -7.9370  -16.2810   38.0890 C   0  0  0  0  0  0  0  0  0  0  0  0
   -7.3190  -16.6950   38.8590 H   0  0  0  0  0  0  0  0  0  0  0  0
   -7.8960  -15.2340   37.8750 H   0  0  0  0  0  0  0  0  0  0  0  0
   -7.2790  -15.6480   38.6450 H   0  0  0  0  0  0  0  0  0  0  0  0
  -19.4220  -10.2270   32.1910 O   0  0  0  0  0  0  0  0  0  0  0  0
  -19.7930   -9.5830   30.8880 C   0  0  0  0  0  0  0  0  0  0  0  0
  -20.6860   -8.9970   30.8160 H   0  0  0  0  0  0  0  0  0  0  0  0
  -19.1660   -9.7100   30.0310 H   0  0  0  0  0  0  0  0  0  0  0  0
  -20.0580   -9.1240   29.9590 H   0  0  0  0  0  0  0  0  0  0  0  0
  1  6  1  0
  2  1  2  0
  4  5  2  0
  5 13  1  0
  6  5  1  0
  6 18  2  0
  7  4  1  0
  7  8  1  0
  8  9  2  0
 10  7  1  0
 12  2  1  0
 14 10  1  0
 15 10  1  0
 16 11  1  0
 17 11  1  0
 18 28  1  0
 18 19  1  0
 19 27  1  0
 20 19  2  0
 20 21  1  0
 21 32  1  0
 21 22  1  0
 22 26  2  0
 22 23  1  0
 23 29  1  0
 23 24  2  0
 24 30  1  0
 25 31  1  0
 25 24  1  0
 26 25  1  0
 27 26  1  0
 32 34  1  0
 33 32  1  0
 34 40  1  0
 35 34  2  0
 35 36  1  0
 36 37  2  0
 37 38  1  0
 37 43  1  0
 38 39  1  0
 40 44  1  0
 40 38  2  0
 41 35  1  0
 42 36  1  0
 44 45  1  0
 45 47  1  0
 45 48  1  0
 46 44  2  0
 49  8  1  0
 50 49  1  0
 51 49  1  0
 54 61  1  0
 55 56  1  0
 55 66  1  0
 56 63  1  0
 56 62  1  0
 57 64  1  0
 58 53  1  0
 59 53  1  0
 60 54  1  0
 65 57  1  0
 66 68  1  0
 66 67  1  0
 66 72  1  0
 68 71  1  0
 68 70  1  0
 69 68  1  0
 72 75  1  0
 72 73  1  0
 74 72  1  0
 76  1  1  0
 77 76  1  0
 78 77  1  0
 79 77  1  0
 80 77  1  0
M  END
>  <minimizedAffinity>  (115) 
-5.99855614

$$$$

     RDKit          3D

 47 51  0  0  0  0  0  0  0  0999 V2000
  -15.1380  -14.5000   34.4810 C   0  0  0  0  0  0  0  0  0  0  0  0
  -14.5390  -13.6310   33.4150 C   0  0  0  0  0  0  0  0  0  0  0  0
  -13.0460  -13.7130   33.5330 N   0  0  0  0  0  0  0  0  0  0  0  0
  -12.7210  -14.6340   34.6720 N   0  0  0  0  0  0  0  0  0  0  0  0
  -11.4160  -15.0920   35.2520 N   0  0  0  0  0  0  0  0  0  0  0  0
  -11.4030  -16.0360   36.4170 C   0  0  0  0  0  0  0  0  0  0  0  0
  -12.6950  -16.5230   37.0030 C   0  0  0  0  0  0  0  0  0  0  0  0
  -14.0010  -16.0650   36.4230 C   0  0  0  0  0  0  0  0  0  0  0  0
  -14.0140  -15.1200   35.2580 C   0  0  0  0  0  0  0  0  0  0  0  0
  -10.5040  -16.3520   36.8160 H   0  0  0  0  0  0  0  0  0  0  0  0
  -12.6860  -17.1730   37.8040 H   0  0  0  0  0  0  0  0  0  0  0  0
  -14.8900  -16.3990   36.8260 H   0  0  0  0  0  0  0  0  0  0  0  0
  -19.0090  -15.9270   37.6380 N   0  0  0  0  0  0  0  0  0  0  0  0
  -18.5370  -15.4260   36.3050 C   0  0  0  0  0  0  0  0  0  0  0  0
  -19.5300  -15.1370   35.2180 N   0  0  0  0  0  0  0  0  0  0  0  0
  -19.0590  -14.6360   33.8860 C   0  0  0  0  0  0  0  0  0  0  0  0
  -17.5940  -14.4240   33.6400 C   0  0  0  0  0  0  0  0  0  0  0  0
  -16.6010  -14.7130   34.7270 C   0  0  0  0  0  0  0  0  0  0  0  0
  -17.0740  -15.2140   36.0590 N   0  0  0  0  0  0  0  0  0  0  0  0
  -19.9710  -16.0660   37.7990 H   0  0  0  0  0  0  0  0  0  0  0  0
  -19.7410  -14.4380   33.1380 H   0  0  0  0  0  0  0  0  0  0  0  0
  -17.2690  -14.0790   32.7230 H   0  0  0  0  0  0  0  0  0  0  0  0
  -15.0400  -17.0830   41.9860 F   0  0  0  0  0  0  0  0  0  0  0  0
  -16.0330  -16.7940   40.8980 C   0  0  0  0  0  0  0  0  0  0  0  0
  -16.0290  -15.4590   40.2160 C   0  0  0  0  0  0  0  0  0  0  0  0
  -17.0220  -15.1700   39.1280 C   0  0  0  0  0  0  0  0  0  0  0  0
  -18.0170  -16.2160   38.7250 C   0  0  0  0  0  0  0  0  0  0  0  0
  -18.0200  -17.5520   39.4080 C   0  0  0  0  0  0  0  0  0  0  0  0
  -17.0280  -17.8400   40.4950 C   0  0  0  0  0  0  0  0  0  0  0  0
  -17.0310  -19.1760   41.1780 F   0  0  0  0  0  0  0  0  0  0  0  0
  -15.3440  -14.7380   40.4940 H   0  0  0  0  0  0  0  0  0  0  0  0
  -17.0190  -14.2510   38.6590 H   0  0  0  0  0  0  0  0  0  0  0  0
  -18.7050  -18.2710   39.1300 H   0  0  0  0  0  0  0  0  0  0  0  0
  -15.3000  -12.8210   32.4080 C   0  0  0  0  0  0  0  0  0  0  0  0
  -15.4290  -13.3100   30.9960 C   0  0  0  0  0  0  0  0  0  0  0  0
  -16.1900  -12.5000   29.9890 C   0  0  0  0  0  0  0  0  0  0  0  0
  -16.8220  -11.2010   30.3940 C   0  0  0  0  0  0  0  0  0  0  0  0
  -16.6930  -10.7120   31.8060 C   0  0  0  0  0  0  0  0  0  0  0  0
  -15.9320  -11.5220   32.8130 C   0  0  0  0  0  0  0  0  0  0  0  0
  -14.9940  -14.2030   30.7170 H   0  0  0  0  0  0  0  0  0  0  0  0
  -16.2790  -12.8360   29.0170 H   0  0  0  0  0  0  0  0  0  0  0  0
  -17.1280   -9.8190   32.0850 H   0  0  0  0  0  0  0  0  0  0  0  0
  -15.8430  -11.1860   33.7850 H   0  0  0  0  0  0  0  0  0  0  0  0
  -17.5840  -10.3910   29.3860 C   0  0  0  0  0  0  0  0  0  0  0  0
  -18.3450   -9.5810   28.3790 F   0  0  0  0  0  0  0  0  0  0  0  0
  -18.2880   -9.6710   30.4980 F   0  0  0  0  0  0  0  0  0  0  0  0
  -16.8790  -11.1110   28.2750 F   0  0  0  0  0  0  0  0  0  0  0  0
  1 18  1  0
  1  9  2  0
  2  3  2  0
  2  1  1  0
  3  4  1  0
  4  5  1  0
  4  9  1  0
  5  6  2  0
  6 10  1  0
  6  7  1  0
  7 11  1  0
  8 12  1  0
  8  7  2  0
  9  8  1  0
 13 20  1  0
 13 27  1  0
 14 13  1  0
 15 14  2  0
 16 15  1  0
 17 16  2  0
 17 18  1  0
 18 19  2  0
 19 14  1  0
 21 16  1  0
 22 17  1  0
 24 23  1  0
 25 31  1  0
 25 24  2  0
 26 25  1  0
 27 26  2  0
 27 28  1  0
 28 29  2  0
 29 24  1  0
 29 30  1  0
 32 26  1  0
 33 28  1  0
 34 39  1  0
 34  2  1  0
 35 34  2  0
 36 37  2  0
 36 35  1  0
 37 38  1  0
 38 42  1  0
 38 39  2  0
 39 43  1  0
 40 35  1  0
 41 36  1  0
 44 37  1  0
 44 46  1  0
 45 44  1  0
 47 44  1  0
M  END
>  <minimizedAffinity>  (116) 
-9.07415295

$$$$

     RDKit          3D

 62 60  0  0  0  0  0  0  0  0999 V2000
  -17.2250  -15.8530   37.8420 N   0  0  0  0  0  0  0  0  0  0  0  0
  -18.5580  -16.2030   38.4360 C   0  0  0  0  0  0  0  0  0  0  0  0
  -19.6200  -15.8450   37.4390 N   0  0  0  0  0  0  0  0  0  0  0  0
  -18.9440  -15.2730   36.2280 C   0  0  0  0  0  0  0  0  0  0  0  0
  -19.4850  -14.7490   34.9310 C   0  0  0  0  0  0  0  0  0  0  0  0
  -18.5460  -14.2290   33.8820 C   0  0  0  0  0  0  0  0  0  0  0  0
  -17.0670  -14.2350   34.1310 C   0  0  0  0  0  0  0  0  0  0  0  0
  -16.5260  -14.7590   35.4280 C   0  0  0  0  0  0  0  0  0  0  0  0
  -17.4650  -15.2780   36.4770 C   0  0  0  0  0  0  0  0  0  0  0  0
  -18.7160  -16.6180   39.3680 H   0  0  0  0  0  0  0  0  0  0  0  0
  -20.5020  -14.7450   34.7600 H   0  0  0  0  0  0  0  0  0  0  0  0
  -18.9180  -13.8680   32.9900 H   0  0  0  0  0  0  0  0  0  0  0  0
  -15.5080  -14.7630   35.5990 H   0  0  0  0  0  0  0  0  0  0  0  0
  -13.6160  -16.7710   38.9320 C   0  0  0  0  0  0  0  0  0  0  0  0
  -14.7510  -16.8570   37.9560 C   0  0  0  0  0  0  0  0  0  0  0  0
  -15.8900  -16.0440   38.4960 C   0  0  0  0  0  0  0  0  0  0  0  0
  -15.4580  -15.4560   39.8070 S   0  0  0  0  0  0  0  0  0  0  0  0
  -14.0520  -15.9050   40.0760 C   0  0  0  0  0  0  0  0  0  0  0  0
  -14.7490  -17.3830   37.0680 H   0  0  0  0  0  0  0  0  0  0  0  0
  -13.2290  -15.5500   41.2780 C   0  0  0  0  0  0  0  0  0  0  0  0
  -13.1960  -14.1350   41.7740 N   0  0  0  0  0  0  0  0  0  0  0  0
  -12.4370  -16.6100   41.9850 O   0  0  0  0  0  0  0  0  0  0  0  0
  -12.6560  -13.9020   42.5630 H   0  0  0  0  0  0  0  0  0  0  0  0
  -13.7160  -13.4390   41.3110 H   0  0  0  0  0  0  0  0  0  0  0  0
  -12.2780  -17.4350   38.7900 O   0  0  0  0  0  1  0  0  0  0  0  0
  -11.0860  -16.6340   38.3530 C   0  0  0  0  0  3  0  0  0  0  0  0
  -11.2640  -16.8040   39.3940 H   0  0  0  0  0  0  0  0  0  0  0  0
  -10.8390  -16.3950   36.8930 C   0  0  0  0  0  0  0  0  0  0  0  0
  -11.7400  -15.4800   36.1180 C   0  0  0  0  0  0  0  0  0  0  0  0
  -11.4920  -15.2420   34.6590 C   0  0  0  0  0  0  0  0  0  0  0  0
  -10.3410  -15.9180   33.9730 C   0  0  0  0  0  0  0  0  0  0  0  0
   -9.4400  -16.8320   34.7470 C   0  0  0  0  0  0  0  0  0  0  0  0
   -9.6880  -17.0710   36.2080 C   0  0  0  0  0  0  0  0  0  0  0  0
   -8.7860  -17.9860   36.9820 Cl  0  0  0  0  0  0  0  0  0  0  0  0
  -12.5320  -15.0150   36.5900 H   0  0  0  0  0  0  0  0  0  0  0  0
  -12.1120  -14.6130   34.1250 H   0  0  0  0  0  0  0  0  0  0  0  0
  -10.1710  -15.7540   32.9690 H   0  0  0  0  0  0  0  0  0  0  0  0
   -8.6480  -17.2980   34.2760 H   0  0  0  0  0  0  0  0  0  0  0  0
  -10.1440  -16.0730   39.3750 C   0  0  0  0  0  0  0  0  0  0  0  0
   -9.2940  -15.5010   39.0640 H   0  0  0  0  0  0  0  0  0  0  0  0
  -10.3220  -16.2440   40.4170 H   0  0  0  0  0  0  0  0  0  0  0  0
   -9.4720  -15.6720   40.1050 H   0  0  0  0  0  0  0  0  0  0  0  0
  -16.1280  -13.7150   33.0820 O   0  0  0  0  0  0  0  0  0  0  0  0
  -16.5970  -12.6820   32.1020 C   0  0  0  0  0  2  0  0  0  0  0  0
  -16.5960  -11.2310   32.4830 C   0  0  0  0  0  2  0  0  0  0  0  0
  -17.0650  -10.1980   31.5020 C   0  0  0  0  0  2  0  0  0  0  0  0
  -17.5350  -10.6150   30.1400 N   0  0  0  0  0  2  0  0  0  0  0  0
  -17.5360  -12.0660   29.7590 C   0  0  0  0  0  3  0  0  0  0  0  0
  -17.0670  -13.0990   30.7400 C   0  0  0  0  0  2  0  0  0  0  0  0
  -16.9320  -11.9450   31.4020 H   0  0  0  0  0  0  0  0  0  0  0  0
  -16.2610  -10.9330   33.4540 H   0  0  0  0  0  0  0  0  0  0  0  0
  -16.5960  -10.1960   32.7540 H   0  0  0  0  0  0  0  0  0  0  0  0
  -17.0650   -9.1630   31.7730 H   0  0  0  0  0  0  0  0  0  0  0  0
  -17.4000   -9.4610   30.8020 H   0  0  0  0  0  0  0  0  0  0  0  0
  -17.8720  -12.3640   28.7870 H   0  0  0  0  0  0  0  0  0  0  0  0
  -17.5370  -13.1010   29.4870 H   0  0  0  0  0  0  0  0  0  0  0  0
  -17.0680  -14.1340   30.4680 H   0  0  0  0  0  0  0  0  0  0  0  0
  -16.7330  -13.8360   31.4390 H   0  0  0  0  0  0  0  0  0  0  0  0
  -18.0040   -9.5820   29.1590 C   0  0  0  0  0  0  0  0  0  0  0  0
  -18.0040   -8.5470   29.4310 H   0  0  0  0  0  0  0  0  0  0  0  0
  -18.3400   -9.8800   28.1870 H   0  0  0  0  0  0  0  0  0  0  0  0
  -18.3390   -8.8450   28.4590 H   0  0  0  0  0  0  0  0  0  0  0  0
  1  2  1  0
  1 16  1  0
  2 10  1  0
  3  2  2  0
  4  9  1  0
  4  3  1  0
  5  4  2  0
  6  7  2  0
  6  5  1  0
  7  8  1  0
  8 13  1  0
  8  9  2  0
  9  1  1  0
 11  5  1  0
 12  6  1  0
 14 18  2  0
 15 16  2  0
 15 14  1  0
 16 17  1  0
 17 18  1  0
 18 20  1  0
 19 15  1  0
 20 21  1  0
 20 22  2  0
 21 23  1  0
 24 21  1  0
 25 14  1  0
 26 39  1  0
 26 27  1  0
 28 26  1  0
 29 35  1  0
 29 28  2  0
 30 29  1  0
 31 30  2  0
 31 32  1  0
 32 33  2  0
 33 28  1  0
 33 34  1  0
 36 30  1  0
 37 31  1  0
 38 32  1  0
 39 42  1  0
 39 41  1  0
 40 39  1  0
 43  7  1  0
 44 43  1  0
 45 52  1  0
 45 51  1  0
 46 53  1  0
 48 47  1  0
 49 58  1  0
 50 44  1  0
 54 46  1  0
 55 48  1  0
 56 48  1  0
 57 49  1  0
 59 60  1  0
 59 47  1  0
 61 59  1  0
 62 59  1  0
M  END
>  <minimizedAffinity>  (117) 
-11.116086

$$$$

     RDKit          3D

 48 48  0  0  1  0  0  0  0  0999 V2000
  -13.2690  -14.6500   34.1980 N   0  0  0  0  0  0  0  0  0  0  0  0
  -13.4480  -13.5440   33.2010 N   0  0  0  0  0  0  0  0  0  0  0  0
  -14.9100  -13.2180   33.1280 C   0  0  0  0  0  0  0  0  0  0  0  0
  -15.6350  -14.1230   34.0800 C   0  0  0  0  0  0  0  0  0  0  0  0
  -17.0870  -14.2560   34.4300 C   0  0  0  0  0  3  0  0  0  0  0  0
  -17.5250  -15.2730   35.4420 N   0  0  0  0  0  0  0  0  0  0  0  0
  -16.5110  -16.1580   36.1030 C   0  0  0  0  0  0  0  0  0  0  0  0
  -15.0580  -16.0250   35.7530 N   0  0  0  0  0  2  0  0  0  0  0  0
  -14.6200  -15.0080   34.7420 C   0  0  0  0  0  0  0  0  0  0  0  0
  -15.3420  -12.4980   32.5280 H   0  0  0  0  0  0  0  0  0  0  0  0
  -16.8120  -16.8580   36.7990 H   0  0  0  0  0  0  0  0  0  0  0  0
  -10.3090  -16.0850   36.4190 C   0  0  0  0  0  3  0  0  0  0  0  0
   -9.3620  -16.5590   35.3570 C   0  0  0  0  0  0  0  0  0  0  0  0
   -9.7170  -16.3980   33.9090 C   0  0  0  0  0  0  0  0  0  0  0  0
  -11.0190  -15.7610   33.5230 C   0  0  0  0  0  0  0  0  0  0  0  0
  -11.9660  -15.2870   34.5850 C   0  0  0  0  0  0  0  0  0  0  0  0
  -11.6120  -15.4480   36.0330 C   0  0  0  0  0  0  0  0  0  0  0  0
   -8.4660  -16.9970   35.6230 H   0  0  0  0  0  0  0  0  0  0  0  0
   -9.0650  -16.7240   33.1780 H   0  0  0  0  0  0  0  0  0  0  0  0
  -11.2630  -15.6500   32.5270 H   0  0  0  0  0  0  0  0  0  0  0  0
  -12.2630  -15.1220   36.7640 H   0  0  0  0  0  0  0  0  0  0  0  0
   -9.9540  -16.2470   37.8680 N   0  0  0  0  0  1  0  0  0  0  0  0
  -10.6410  -16.1190   38.5610 H   0  0  0  0  0  0  0  0  0  0  0  0
   -8.5510  -16.6040   38.2610 C   0  0  0  0  0  2  0  0  0  0  0  0
   -7.7540  -15.9120   38.0850 H   0  0  0  0  0  0  0  0  0  0  0  0
   -8.7540  -15.6570   37.8050 H   0  0  0  0  0  0  0  0  0  0  0  0
   -8.2650  -17.9290   38.9010 C   0  0  0  0  0  3  0  0  0  0  0  0
   -8.7840  -18.2170   39.7920 H   0  0  0  0  0  0  0  0  0  0  0  0
   -8.9880  -17.2710   39.3350 H   0  0  0  0  0  0  0  0  0  0  0  0
   -7.2530  -18.8540   38.2930 C   0  0  0  0  0  0  0  0  0  0  0  0
   -6.7340  -18.5660   37.4020 H   0  0  0  0  0  0  0  0  0  0  0  0
   -7.0490  -19.7990   38.7490 H   0  0  0  0  0  0  0  0  0  0  0  0
   -6.5300  -19.5130   37.8590 H   0  0  0  0  0  0  0  0  0  0  0  0
  -18.1020  -13.3710   33.7690 N   0  0  0  0  0  0  0  0  0  0  0  0
  -18.6430  -12.7510   34.3100 H   0  0  0  0  0  0  0  0  0  0  0  0
  -18.2930  -13.4300   32.2820 N   0  0  0  0  0  0  0  0  0  0  0  0
  -18.0650  -12.2040   31.4470 C   0  0  0  0  0  0  0  0  0  0  0  0
  -17.7770  -11.3200   31.8960 H   0  0  0  0  0  0  0  0  0  0  0  0
  -18.2560  -12.2630   29.9610 C   0  0  0  0  0  0  0  0  0  0  0  0
  -19.0750  -13.3630   29.3530 C   0  0  0  0  0  0  0  0  0  0  0  0
  -19.2660  -13.4220   27.8660 C   0  0  0  0  0  0  0  0  0  0  0  0
  -18.6380  -12.3810   26.9870 N   0  0  0  0  0  0  0  0  0  0  0  0
  -17.8190  -11.2820   27.5950 C   0  0  0  0  0  0  0  0  0  0  0  0
  -17.6280  -11.2230   29.0820 C   0  0  0  0  0  0  0  0  0  0  0  0
  -19.5070  -14.0790   29.9570 H   0  0  0  0  0  0  0  0  0  0  0  0
  -19.8300  -14.1790   27.4480 H   0  0  0  0  0  0  0  0  0  0  0  0
  -17.3870  -10.5650   26.9910 H   0  0  0  0  0  0  0  0  0  0  0  0
  -17.0640  -10.4660   29.5000 H   0  0  0  0  0  0  0  0  0  0  0  0
  1 16  1  0
  1  9  1  0
  2  1  1  0
  3  2  2  0
  3  4  1  0
  4  5  1  0
  4  9  2  0
  5 34  1  0
  5  6  1  0
  6  7  2  0
  7 11  1  0
  8  7  1  0
  9  8  1  0
 10  3  1  0
 13 18  1  0
 13 12  2  0
 14 13  1  0
 15 14  2  0
 15 16  1  0
 16 17  2  0
 17 12  1  0
 17 21  1  0
 19 14  1  0
 20 15  1  0
 22 23  1  0
 25 24  1  0
 26 24  1  0
 27 29  1  0
 27 28  1  0
 30 32  1  0
 30 27  1  0
 31 30  1  0
 33 30  1  0
 34 35  1  0
 36 34  1  0
 37 38  1  0
 37 36  2  0
 39 37  1  0
 40 45  1  0
 40 39  1  0
 41 40  2  0
 42 43  2  0
 42 41  1  0
 43 44  1  0
 44 48  1  0
 44 39  2  0
 46 41  1  0
 47 43  1  0
M  END
>  <minimizedAffinity>  (118) 
-8.51938152

$$$$

     RDKit          3D

 51 55  0  0  0  0  0  0  0  0999 V2000
  -11.1300  -15.8470   35.8100 C   0  0  0  0  0  0  0  0  0  0  0  0
  -10.1000  -16.2540   34.7990 C   0  0  0  0  0  0  0  0  0  0  0  0
  -10.3260  -15.9720   33.3420 C   0  0  0  0  0  0  0  0  0  0  0  0
  -11.5820  -15.2830   32.8990 N   0  0  0  0  0  0  0  0  0  0  0  0
  -12.6120  -14.8760   33.9100 C   0  0  0  0  0  0  0  0  0  0  0  0
  -12.3870  -15.1580   35.3660 C   0  0  0  0  0  0  0  0  0  0  0  0
   -9.2360  -16.7280   35.1040 H   0  0  0  0  0  0  0  0  0  0  0  0
   -9.6180  -16.2520   32.6470 H   0  0  0  0  0  0  0  0  0  0  0  0
  -13.0950  -14.8780   36.0620 H   0  0  0  0  0  0  0  0  0  0  0  0
  -13.8680  -14.1870   33.4660 C   0  0  0  0  0  0  0  0  0  0  0  0
  -13.8580  -13.3280   32.2350 C   0  0  0  0  0  0  0  0  0  0  0  0
  -15.1140  -12.6390   31.7920 C   0  0  0  0  0  0  0  0  0  0  0  0
  -16.3800  -12.8080   32.5770 C   0  0  0  0  0  0  0  0  0  0  0  0
  -16.3910  -13.6670   33.8070 C   0  0  0  0  0  0  0  0  0  0  0  0
  -15.1350  -14.3560   34.2510 C   0  0  0  0  0  0  0  0  0  0  0  0
  -12.9870  -13.2120   31.6950 H   0  0  0  0  0  0  0  0  0  0  0  0
  -15.1070  -12.0480   30.9450 H   0  0  0  0  0  0  0  0  0  0  0  0
  -17.2620  -13.7840   34.3480 H   0  0  0  0  0  0  0  0  0  0  0  0
  -15.1420  -14.9470   35.0970 H   0  0  0  0  0  0  0  0  0  0  0  0
  -17.6360  -12.1200   32.1330 O   0  0  0  0  0  0  0  0  0  0  0  0
  -18.7010  -11.7820   33.1350 C   0  0  0  0  0  0  0  0  0  0  0  0
  -18.6790  -10.8390   33.6410 H   0  0  0  0  0  0  0  0  0  0  0  0
  -19.4600  -11.5410   33.8500 H   0  0  0  0  0  0  0  0  0  0  0  0
  -19.7950  -12.7650   33.4290 C   0  0  0  0  0  0  0  0  0  0  0  0
  -20.5870  -12.9100   32.7230 H   0  0  0  0  0  0  0  0  0  0  0  0
  -20.5760  -13.4660   33.6370 H   0  0  0  0  0  0  0  0  0  0  0  0
  -19.7800  -13.5440   34.7090 N   0  0  0  0  0  0  0  0  0  0  0  0
  -19.7490  -12.9670   36.0940 C   0  0  0  0  0  0  0  0  0  0  0  0
  -19.7440  -14.1030   37.0710 C   0  0  0  0  0  0  0  0  0  0  0  0
  -19.7710  -15.3850   36.2920 N   0  0  0  0  0  0  0  0  0  0  0  0
  -19.7930  -15.0390   34.8320 C   0  0  0  0  0  0  0  0  0  0  0  0
  -19.7350  -11.9620   36.3310 H   0  0  0  0  0  0  0  0  0  0  0  0
  -19.7250  -14.0190   38.1000 H   0  0  0  0  0  0  0  0  0  0  0  0
  -19.8140  -15.7120   34.0490 H   0  0  0  0  0  0  0  0  0  0  0  0
  -11.9710  -16.3950   38.2870 C   0  0  0  0  0  0  0  0  0  0  0  0
  -11.2990  -16.6250   39.6100 N   0  0  0  0  0  0  0  0  0  0  0  0
   -9.8190  -16.5000   39.4040 N   0  0  0  0  0  0  0  0  0  0  0  0
   -9.5750  -16.1940   37.9560 C   0  0  0  0  0  0  0  0  0  0  0  0
  -10.9050  -16.1290   37.2660 C   0  0  0  0  0  0  0  0  0  0  0  0
   -9.1280  -16.6020   40.0990 H   0  0  0  0  0  0  0  0  0  0  0  0
   -8.6540  -16.0530   37.5130 H   0  0  0  0  0  0  0  0  0  0  0  0
  -16.4040  -16.4890   37.5210 C   0  0  0  0  0  0  0  0  0  0  0  0
  -15.6060  -17.7570   37.4620 C   0  0  0  0  0  0  0  0  0  0  0  0
  -14.1280  -17.7260   37.7170 C   0  0  0  0  0  0  0  0  0  0  0  0
  -13.4490  -16.4260   38.0320 C   0  0  0  0  0  0  0  0  0  0  0  0
  -14.2470  -15.1580   38.0920 N   0  0  0  0  0  0  0  0  0  0  0  0
  -15.7250  -15.1890   37.8360 C   0  0  0  0  0  0  0  0  0  0  0  0
  -17.4210  -16.5100   37.3460 H   0  0  0  0  0  0  0  0  0  0  0  0
  -16.0730  -18.6520   37.2450 H   0  0  0  0  0  0  0  0  0  0  0  0
  -13.5790  -18.5990   37.6760 H   0  0  0  0  0  0  0  0  0  0  0  0
  -16.2740  -14.3160   37.8770 H   0  0  0  0  0  0  0  0  0  0  0  0
  1 39  1  0
  2  7  1  0
  2  1  2  0
  3  2  1  0
  4  3  2  0
  4  5  1  0
  5  6  2  0
  6  1  1  0
  6  9  1  0
  8  3  1  0
 10  5  1  0
 10 15  1  0
 11 10  2  0
 12 11  1  0
 12 13  2  0
 13 14  1  0
 14 15  2  0
 14 18  1  0
 15 19  1  0
 16 11  1  0
 17 12  1  0
 20 13  1  0
 20 21  1  0
 21 24  1  0
 21 22  1  0
 21 23  1  0
 24 26  1  0
 24 27  1  0
 25 24  1  0
 27 31  1  0
 27 28  1  0
 28 32  1  0
 28 29  2  0
 29 33  1  0
 30 29  1  0
 31 30  2  0
 34 31  1  0
 35 36  2  0
 37 36  1  0
 37 40  1  0
 38 37  1  0
 39 38  2  0
 39 35  1  0
 41 38  1  0
 42 47  1  0
 43 42  2  0
 43 44  1  0
 44 45  2  0
 45 46  1  0
 45 35  1  0
 47 51  1  0
 47 46  2  0
 48 42  1  0
 49 43  1  0
 50 44  1  0
M  END
>  <minimizedAffinity>  (119) 
-9.44349003

$$$$

     RDKit          3D

 47 50  0  0  0  0  0  0  0  0999 V2000
  -16.3300  -12.1340   31.4460 C   0  0  0  0  0  0  0  0  0  0  0  0
  -15.6370  -13.0420   30.4740 C   0  0  0  0  0  0  0  0  0  0  0  0
  -14.3880  -13.7640   30.8830 C   0  0  0  0  0  0  0  0  0  0  0  0
  -13.8310  -13.5780   32.2630 C   0  0  0  0  0  0  0  0  0  0  0  0
  -14.5240  -12.6700   33.2350 C   0  0  0  0  0  0  0  0  0  0  0  0
  -15.7740  -11.9480   32.8260 C   0  0  0  0  0  0  0  0  0  0  0  0
  -16.0200  -13.1700   29.5240 H   0  0  0  0  0  0  0  0  0  0  0  0
  -13.9110  -14.3890   30.2140 H   0  0  0  0  0  0  0  0  0  0  0  0
  -14.1420  -12.5410   34.1840 H   0  0  0  0  0  0  0  0  0  0  0  0
  -16.2510  -11.3220   33.4950 H   0  0  0  0  0  0  0  0  0  0  0  0
  -15.7250  -11.5000   28.3580 N   0  0  0  0  0  0  0  0  0  0  0  0
  -17.0820  -10.8610   28.3990 C   0  0  0  0  0  0  0  0  0  0  0  0
  -17.6460  -10.2200   27.1650 N   0  0  0  0  0  0  0  0  0  0  0  0
  -19.0030   -9.5810   27.2060 C   0  0  0  0  0  0  0  0  0  0  0  0
  -19.7950   -9.5820   28.4800 N   0  0  0  0  0  0  0  0  0  0  0  0
  -19.2300  -10.2230   29.7130 C   0  0  0  0  0  0  0  0  0  0  0  0
  -19.7750  -10.3770   31.1030 O   0  0  0  0  0  0  0  0  0  0  0  0
  -18.7540  -11.1120   31.9200 C   0  0  0  0  0  0  0  0  0  0  0  0
  -17.5790  -11.4120   31.0370 C   0  0  0  0  0  0  0  0  0  0  0  0
  -17.8740  -10.8620   29.6730 C   0  0  0  0  0  0  0  0  0  0  0  0
  -15.2060  -11.4990   27.5220 H   0  0  0  0  0  0  0  0  0  0  0  0
  -15.3550  -11.9200   29.1680 H   0  0  0  0  0  0  0  0  0  0  0  0
  -19.3910   -9.1400   26.3570 H   0  0  0  0  0  0  0  0  0  0  0  0
  -18.8440  -11.3670   32.9160 H   0  0  0  0  0  0  0  0  0  0  0  0
  -12.5810  -14.3000   32.6720 N   0  0  0  0  0  0  0  0  0  0  0  0
  -12.3920  -14.7230   34.1000 C   0  0  0  0  0  0  0  0  0  0  0  0
  -13.4530  -14.4230   35.1170 O   0  0  0  0  0  0  0  0  0  0  0  0
  -11.1430  -15.4450   34.5080 N   0  0  0  0  0  0  0  0  0  0  0  0
  -11.8850  -14.4970   32.0050 H   0  0  0  0  0  0  0  0  0  0  0  0
  -10.4470  -15.6410   33.8410 H   0  0  0  0  0  0  0  0  0  0  0  0
  -10.9540  -15.8670   35.9360 C   0  0  0  0  0  0  0  0  0  0  0  0
  -12.1480  -16.1620   36.7940 C   0  0  0  0  0  0  0  0  0  0  0  0
  -11.9590  -16.5850   38.2220 C   0  0  0  0  0  0  0  0  0  0  0  0
  -10.5780  -16.7120   38.7900 C   0  0  0  0  0  0  0  0  0  0  0  0
   -9.3830  -16.4170   37.9300 C   0  0  0  0  0  0  0  0  0  0  0  0
   -9.5730  -15.9940   36.5040 C   0  0  0  0  0  0  0  0  0  0  0  0
  -13.0990  -16.0750   36.4040 H   0  0  0  0  0  0  0  0  0  0  0  0
  -10.4480  -17.0030   39.7710 H   0  0  0  0  0  0  0  0  0  0  0  0
   -8.7510  -15.7910   35.9130 H   0  0  0  0  0  0  0  0  0  0  0  0
  -13.1530  -16.8800   39.0800 C   0  0  0  0  0  0  0  0  0  0  0  0
  -14.3470  -17.1760   39.9390 F   0  0  0  0  0  0  0  0  0  0  0  0
  -12.3520  -16.5560   40.3060 F   0  0  0  0  0  0  0  0  0  0  0  0
  -13.9550  -17.2040   37.8550 F   0  0  0  0  0  0  0  0  0  0  0  0
   -8.0010  -16.5440   38.4990 C   0  0  0  0  0  0  0  0  0  0  0  0
   -6.6190  -16.6700   39.0670 F   0  0  0  0  0  0  0  0  0  0  0  0
   -8.3870  -17.8390   39.1480 F   0  0  0  0  0  0  0  0  0  0  0  0
   -7.6150  -15.2480   37.8490 F   0  0  0  0  0  0  0  0  0  0  0  0
  1  6  1  0
  2  3  1  0
  2  1  2  0
  3  4  2  0
  4 25  1  0
  4  5  1  0
  5  9  1  0
  6  5  2  0
  6 10  1  0
  7  2  1  0
  8  3  1  0
 11 12  1  0
 11 22  1  0
 12 20  2  0
 13 14  2  0
 13 12  1  0
 14 15  1  0
 15 16  2  0
 16 17  1  0
 17 18  1  0
 18 24  1  0
 19  1  1  0
 19 18  2  0
 20 16  1  0
 20 19  1  0
 21 11  1  0
 23 14  1  0
 25 26  1  0
 26 28  1  0
 26 27  2  0
 28 31  1  0
 29 25  1  0
 30 28  1  0
 31 36  2  0
 31 32  1  0
 32 33  2  0
 33 34  1  0
 33 40  1  0
 34 38  1  0
 35 44  1  0
 35 34  2  0
 36 35  1  0
 37 32  1  0
 39 36  1  0
 40 41  1  0
 40 42  1  0
 43 40  1  0
 44 45  1  0
 44 46  1  0
 47 44  1  0
M  END
>  <minimizedAffinity>  (120) 
-9.47385597

$$$$

     RDKit          3D

 42 43  0  0  0  0  0  0  0  0999 V2000
  -14.2290  -16.1280   36.2010 C   0  0  0  0  0  0  0  0  0  0  0  0
  -15.0880  -15.0950   36.8680 C   0  0  0  0  0  0  0  0  0  0  0  0
  -14.6550  -16.8220   35.5680 H   0  0  0  0  0  0  0  0  0  0  0  0
  -14.6630  -14.4000   37.5020 H   0  0  0  0  0  0  0  0  0  0  0  0
  -16.5660  -15.0720   36.6140 C   0  0  0  0  0  0  0  0  0  0  0  0
  -17.5270  -15.1690   37.7620 C   0  0  0  0  0  0  0  0  0  0  0  0
  -19.0050  -15.1460   37.5080 N   0  0  0  0  0  0  0  0  0  0  0  0
  -19.5230  -15.0250   36.1050 C   0  0  0  0  0  0  0  0  0  0  0  0
  -18.5620  -14.9280   34.9570 C   0  0  0  0  0  0  0  0  0  0  0  0
  -17.0840  -14.9510   35.2110 C   0  0  0  0  0  0  0  0  0  0  0  0
  -17.1700  -15.2520   38.7270 H   0  0  0  0  0  0  0  0  0  0  0  0
  -20.5400  -15.0090   35.9300 H   0  0  0  0  0  0  0  0  0  0  0  0
  -16.4240  -14.8840   34.4210 H   0  0  0  0  0  0  0  0  0  0  0  0
  -19.0800  -14.8070   33.5550 C   0  0  0  0  0  0  0  0  0  0  0  0
  -19.4930  -16.0350   32.7990 O   0  0  0  0  0  0  0  0  0  0  0  0
  -19.1860  -13.4570   32.9080 N   0  0  0  0  0  0  0  0  0  0  0  0
  -19.7040  -13.3370   31.5050 C   0  0  0  0  0  0  0  0  0  0  0  0
  -19.7800  -12.3740   31.0440 H   0  0  0  0  0  0  0  0  0  0  0  0
  -19.9980  -14.2130   30.9660 H   0  0  0  0  0  0  0  0  0  0  0  0
  -20.0740  -13.2500   30.5040 H   0  0  0  0  0  0  0  0  0  0  0  0
  -18.7740  -12.2290   33.6630 C   0  0  0  0  0  0  0  0  0  0  0  0
  -18.4050  -12.3150   34.6630 H   0  0  0  0  0  0  0  0  0  0  0  0
  -18.8490  -11.2660   33.2020 H   0  0  0  0  0  0  0  0  0  0  0  0
  -18.4800  -11.3530   34.2030 H   0  0  0  0  0  0  0  0  0  0  0  0
  -12.2130  -16.7980   37.6980 C   0  0  0  0  0  0  0  0  0  0  0  0
  -10.7350  -16.8210   37.9520 C   0  0  0  0  0  0  0  0  0  0  0  0
   -9.7950  -16.1970   36.9640 C   0  0  0  0  0  0  0  0  0  0  0  0
  -10.3320  -15.5500   35.7220 C   0  0  0  0  0  0  0  0  0  0  0  0
  -11.8100  -15.5270   35.4680 C   0  0  0  0  0  0  0  0  0  0  0  0
  -12.7510  -16.1510   36.4560 C   0  0  0  0  0  0  0  0  0  0  0  0
  -10.3660  -17.2660   38.8070 H   0  0  0  0  0  0  0  0  0  0  0  0
   -9.6850  -15.1210   35.0420 H   0  0  0  0  0  0  0  0  0  0  0  0
  -13.1540  -17.4210   38.6860 C   0  0  0  0  0  0  0  0  0  0  0  0
  -12.7710  -17.8830   39.5720 H   0  0  0  0  0  0  0  0  0  0  0  0
  -14.2090  -17.4050   38.5040 H   0  0  0  0  0  0  0  0  0  0  0  0
  -13.8250  -17.8660   39.3900 H   0  0  0  0  0  0  0  0  0  0  0  0
  -12.3470  -14.8800   34.2260 C   0  0  0  0  0  0  0  0  0  0  0  0
  -13.4020  -14.8640   34.0440 H   0  0  0  0  0  0  0  0  0  0  0  0
  -11.6760  -14.4350   33.5210 H   0  0  0  0  0  0  0  0  0  0  0  0
  -12.7310  -14.4190   33.3390 H   0  0  0  0  0  0  0  0  0  0  0  0
   -8.3160  -16.2210   37.2180 O   0  0  0  0  0  0  0  0  0  0  0  0
   -7.7290  -15.8310   36.6010 H   0  0  0  0  0  0  0  0  0  0  0  0
  1 30  1  0
  1  2  2  0
  2  4  1  0
  3  1  1  0
  5  2  1  0
  5  6  1  0
  6 11  1  0
  7  6  2  0
  8  7  1  0
  9 10  1  0
  9  8  2  0
 10  5  2  0
 12  8  1  0
 13 10  1  0
 14  9  1  0
 15 14  2  0
 16 14  1  0
 16 21  1  0
 17 16  1  0
 18 17  1  0
 19 17  1  0
 20 17  1  0
 21 24  1  0
 21 22  1  0
 23 21  1  0
 25 26  1  0
 25 33  1  0
 26 31  1  0
 27 41  1  0
 27 26  2  0
 28 27  1  0
 29 28  2  0
 29 30  1  0
 30 25  2  0
 32 28  1  0
 33 36  1  0
 33 34  1  0
 35 33  1  0
 37 29  1  0
 38 37  1  0
 39 37  1  0
 40 37  1  0
 42 41  1  0
M  END
>  <minimizedAffinity>  (121) 
-8.33718586

$$$$

     RDKit          3D

 39 41  0  0  0  0  0  0  0  0999 V2000
  -14.2930  -16.5960   37.0120 C   0  0  0  0  0  0  0  0  0  0  0  0
  -15.3800  -15.9800   36.1820 C   0  0  0  0  0  0  0  0  0  0  0  0
  -15.0280  -15.0960   35.0220 C   0  0  0  0  0  0  0  0  0  0  0  0
  -13.5900  -14.8280   34.6930 N   0  0  0  0  0  0  0  0  0  0  0  0
  -12.5030  -15.4440   35.5230 C   0  0  0  0  0  0  0  0  0  0  0  0
  -11.0640  -15.1760   35.1930 C   0  0  0  0  0  0  0  0  0  0  0  0
   -9.9770  -15.7920   36.0230 C   0  0  0  0  0  0  0  0  0  0  0  0
  -10.3290  -16.6770   37.1820 C   0  0  0  0  0  0  0  0  0  0  0  0
  -11.7670  -16.9450   37.5120 C   0  0  0  0  0  0  0  0  0  0  0  0
  -12.8540  -16.3280   36.6820 C   0  0  0  0  0  0  0  0  0  0  0  0
  -16.3690  -16.1640   36.4090 H   0  0  0  0  0  0  0  0  0  0  0  0
  -15.7760  -14.6720   34.4510 H   0  0  0  0  0  0  0  0  0  0  0  0
  -10.8220  -14.5680   34.3950 H   0  0  0  0  0  0  0  0  0  0  0  0
   -8.9870  -15.6080   35.7960 H   0  0  0  0  0  0  0  0  0  0  0  0
  -12.0090  -17.5530   38.3100 H   0  0  0  0  0  0  0  0  0  0  0  0
   -9.2420  -17.2930   38.0120 S   0  0  2  0  0  0  0  0  0  0  0  0
   -8.6180  -17.8630   36.7730 O   0  0  0  0  0  0  0  0  0  0  0  0
   -9.8650  -16.7230   39.2520 O   0  0  0  0  0  0  0  0  0  0  0  0
   -8.1550  -17.9090   38.8420 C   0  0  0  0  0  0  0  0  0  0  0  0
   -8.1520  -17.7770   39.9040 H   0  0  0  0  0  0  0  0  0  0  0  0
   -7.3820  -18.4810   38.3720 H   0  0  0  0  0  0  0  0  0  0  0  0
   -7.3790  -18.3490   39.4340 H   0  0  0  0  0  0  0  0  0  0  0  0
  -14.6440  -17.4810   38.1710 N   0  0  0  0  0  0  0  0  0  0  0  0
  -14.1240  -18.2990   38.3430 H   0  0  0  0  0  0  0  0  0  0  0  0
  -15.5350  -16.3670   40.3430 C   0  0  0  0  0  0  0  0  0  0  0  0
  -16.6800  -16.0060   41.2420 C   0  0  0  0  0  0  0  0  0  0  0  0
  -18.0790  -16.3950   40.8680 C   0  0  0  0  0  0  0  0  0  0  0  0
  -18.3340  -17.1460   39.5950 C   0  0  0  0  0  0  0  0  0  0  0  0
  -17.1890  -17.5080   38.6960 C   0  0  0  0  0  0  0  0  0  0  0  0
  -15.7890  -17.1190   39.0700 C   0  0  0  0  0  0  0  0  0  0  0  0
  -16.5050  -15.4890   42.1180 H   0  0  0  0  0  0  0  0  0  0  0  0
  -18.8670  -16.1460   41.4860 H   0  0  0  0  0  0  0  0  0  0  0  0
  -17.3640  -18.0250   37.8200 H   0  0  0  0  0  0  0  0  0  0  0  0
  -14.1360  -15.9780   40.7170 C   0  0  0  0  0  0  0  0  0  0  0  0
  -13.9540  -15.4420   41.6260 H   0  0  0  0  0  0  0  0  0  0  0  0
  -13.3190  -16.2360   40.0760 H   0  0  0  0  0  0  0  0  0  0  0  0
  -13.1370  -15.7000   40.9850 H   0  0  0  0  0  0  0  0  0  0  0  0
  -19.7330  -17.5360   39.2210 O   0  0  0  0  0  0  0  0  0  0  0  0
  -19.8920  -18.0060   38.4250 H   0  0  0  0  0  0  0  0  0  0  0  0
  1 23  1  0
  2 11  1  0
  2  1  2  0
  3  2  1  0
  4  3  2  0
  4  5  1  0
  5 10  1  0
  6  5  2  0
  6  7  1  0
  7  8  2  0
  8  9  1  0
  8 16  1  0
  9 15  1  0
 10  1  1  0
 10  9  2  0
 12  3  1  0
 13  6  1  0
 14  7  1  0
 16 19  1  0
 16 18  2  0
 17 16  2  0
 19 22  1  0
 19 20  1  0
 21 19  1  0
 23 24  1  0
 23 30  1  0
 25 34  1  0
 25 26  1  0
 26 31  1  0
 27 26  2  0
 27 32  1  0
 28 27  1  0
 29 30  1  0
 29 28  2  0
 30 25  2  0
 33 29  1  0
 34 37  1  0
 34 35  1  0
 36 34  1  0
 38 28  1  0
 39 38  1  0
M  END
>  <minimizedAffinity>  (122) 
-8.60449409

$$$$

     RDKit          3D

 37 40  0  0  0  0  0  0  0  0999 V2000
  -13.1590  -16.4500   36.7550 C   0  0  0  0  0  0  0  0  0  0  0  0
  -14.0750  -17.2300   37.6500 C   0  0  0  0  0  0  0  0  0  0  0  0
  -15.5610  -17.0850   37.5120 C   0  0  0  0  0  0  0  0  0  0  0  0
  -16.1320  -16.1610   36.4780 C   0  0  0  0  0  0  0  0  0  0  0  0
  -15.2160  -15.3810   35.5820 C   0  0  0  0  0  0  0  0  0  0  0  0
  -13.7290  -15.5250   35.7200 C   0  0  0  0  0  0  0  0  0  0  0  0
  -16.0630  -14.5530   34.6610 C   0  0  0  0  0  0  0  0  0  0  0  0
  -15.5580  -13.6200   33.5990 C   0  0  0  0  0  0  0  0  0  0  0  0
  -17.5020  -14.8210   34.9880 C   0  0  0  0  0  0  0  0  0  0  0  0
  -18.6900  -14.2040   34.3110 O   0  0  0  0  0  0  0  0  0  0  0  0
  -17.5450  -15.8150   36.1100 N   0  0  0  0  0  0  0  0  0  0  0  0
  -13.6820  -17.8660   38.3620 H   0  0  0  0  0  0  0  0  0  0  0  0
  -16.1920  -17.6220   38.1280 H   0  0  0  0  0  0  0  0  0  0  0  0
  -13.0990  -14.9890   35.1040 H   0  0  0  0  0  0  0  0  0  0  0  0
  -14.5430  -13.5060   33.4540 H   0  0  0  0  0  0  0  0  0  0  0  0
  -18.3580  -16.1760   36.5320 H   0  0  0  0  0  0  0  0  0  0  0  0
  -16.5300  -12.8550   32.7510 C   0  0  0  0  0  0  0  0  0  0  0  0
  -17.1610  -11.6010   33.2790 C   0  0  0  0  0  0  0  0  0  0  0  0
  -18.1330  -10.8360   32.4300 C   0  0  0  0  0  0  0  0  0  0  0  0
  -18.7650   -9.5810   32.9580 Br  0  0  0  0  0  0  0  0  0  0  0  0
  -18.4740  -11.3240   31.0530 C   0  0  0  0  0  0  0  0  0  0  0  0
  -17.8420  -12.5780   30.5260 C   0  0  0  0  0  0  0  0  0  0  0  0
  -18.1820  -13.0670   29.1490 Br  0  0  0  0  0  0  0  0  0  0  0  0
  -16.8700  -13.3440   31.3740 C   0  0  0  0  0  0  0  0  0  0  0  0
  -16.9270  -11.2650   34.2260 H   0  0  0  0  0  0  0  0  0  0  0  0
  -16.4360  -14.2060   31.0110 H   0  0  0  0  0  0  0  0  0  0  0  0
  -19.4450  -10.5600   30.2050 O   0  0  0  0  0  0  0  0  0  0  0  0
  -19.8390   -9.7760   30.5340 H   0  0  0  0  0  0  0  0  0  0  0  0
   -8.3990  -17.9820   38.4500 N   0  0  0  0  0  0  0  0  0  0  0  0
   -9.4840  -17.2990   37.6720 C   0  0  0  0  0  0  0  0  0  0  0  0
  -10.9590  -17.4590   37.8900 N   0  0  0  0  0  0  0  0  0  0  0  0
  -11.6720  -16.5940   36.8930 C   0  0  0  0  0  0  0  0  0  0  0  0
  -10.6380  -15.9000   36.0590 C   0  0  0  0  0  0  0  0  0  0  0  0
   -9.2850  -16.3350   36.5400 S   0  0  0  0  0  0  0  0  0  0  0  0
   -7.4540  -17.8110   38.2310 H   0  0  0  0  0  0  0  0  0  0  0  0
   -8.6300  -18.6000   39.1790 H   0  0  0  0  0  0  0  0  0  0  0  0
  -10.8230  -15.2380   35.2880 H   0  0  0  0  0  0  0  0  0  0  0  0
  1 32  1  0
  1  2  1  0
  2 12  1  0
  3  2  2  0
  3 13  1  0
  4  3  1  0
  5  6  1  0
  5  4  2  0
  6  1  2  0
  7  9  1  0
  7  5  1  0
  8  7  2  0
  9 11  1  0
 10  9  2  0
 11  4  1  0
 11 16  1  0
 14  6  1  0
 15  8  1  0
 17 18  1  0
 17  8  1  0
 18 25  1  0
 19 20  1  0
 19 18  2  0
 21 19  1  0
 22 21  2  0
 22 24  1  0
 23 22  1  0
 24 17  2  0
 26 24  1  0
 27 28  1  0
 27 21  1  0
 29 36  1  0
 30 31  2  0
 30 29  1  0
 32 31  1  0
 33 34  1  0
 33 32  2  0
 34 30  1  0
 35 29  1  0
 37 33  1  0
M  END
>  <minimizedAffinity>  (123) 
-7.8253417

$$$$

     RDKit          3D

 54 54  0  0  0  0  0  0  0  0999 V2000
  -12.3730  -16.4940   38.6610 C   0  0  0  0  0  0  0  0  0  0  0  0
  -10.9300  -16.8820   38.7960 C   0  0  0  0  0  0  0  0  0  0  0  0
  -10.0070  -16.7610   37.6200 C   0  0  0  0  0  0  0  0  0  0  0  0
  -10.5270  -16.2530   36.3080 C   0  0  0  0  0  0  0  0  0  0  0  0
  -11.9700  -15.8650   36.1720 C   0  0  0  0  0  0  0  0  0  0  0  0
  -12.8920  -15.9860   37.3490 C   0  0  0  0  0  0  0  0  0  0  0  0
  -12.1940  -15.4000   34.7640 C   0  0  0  0  0  0  0  0  0  0  0  0
  -13.4940  -14.9190   34.1910 N   0  0  0  0  0  0  0  0  0  0  0  0
  -10.8910  -15.5000   34.0290 C   0  0  0  0  0  0  0  0  0  0  0  0
  -10.6580  -15.1370   32.5920 O   0  0  0  0  0  0  0  0  0  0  0  0
   -9.8600  -16.0270   34.9830 N   0  0  0  0  0  0  0  0  0  0  0  0
  -10.5720  -17.2320   39.6990 H   0  0  0  0  0  0  0  0  0  0  0  0
   -9.0140  -17.0280   37.7130 H   0  0  0  0  0  0  0  0  0  0  0  0
  -13.8850  -15.7190   37.2550 H   0  0  0  0  0  0  0  0  0  0  0  0
   -8.9120  -16.1960   34.7760 H   0  0  0  0  0  0  0  0  0  0  0  0
  -14.7170  -17.0470   39.6340 N   0  0  0  0  0  1  0  0  0  0  0  0
  -13.2950  -16.6150   39.8370 C   0  0  0  0  0  2  0  0  0  0  0  0
  -12.7960  -16.3030   41.2170 O   0  0  0  0  0  1  0  0  0  0  0  0
  -15.0450  -17.2520   38.7280 H   0  0  0  0  0  0  0  0  0  0  0  0
  -15.6400  -17.1680   40.8100 C   0  0  0  0  0  3  0  0  0  0  0  0
  -15.2670  -17.0110   41.8010 H   0  0  0  0  0  0  0  0  0  0  0  0
  -14.6090  -16.9250   40.9620 H   0  0  0  0  0  0  0  0  0  0  0  0
  -17.0850  -17.5080   40.5980 C   0  0  0  0  0  0  0  0  0  0  0  0
  -16.8730  -18.8310   41.2730 C   0  0  0  0  0  0  0  0  0  0  0  0
  -15.9040  -19.0930   41.6450 H   0  0  0  0  0  0  0  0  0  0  0  0
  -17.6900  -19.5130   41.3820 H   0  0  0  0  0  0  0  0  0  0  0  0
  -16.7210  -19.7750   41.7540 H   0  0  0  0  0  0  0  0  0  0  0  0
  -17.2970  -16.1850   39.9230 C   0  0  0  0  0  0  0  0  0  0  0  0
  -18.2660  -15.9230   39.5510 H   0  0  0  0  0  0  0  0  0  0  0  0
  -16.4800  -15.5030   39.8140 H   0  0  0  0  0  0  0  0  0  0  0  0
  -17.4490  -15.2420   39.4420 H   0  0  0  0  0  0  0  0  0  0  0  0
  -18.5310  -17.8480   40.3860 C   0  0  0  0  0  0  0  0  0  0  0  0
  -19.2330  -17.7190   41.1820 H   0  0  0  0  0  0  0  0  0  0  0  0
  -19.5620  -18.0910   40.2340 H   0  0  0  0  0  0  0  0  0  0  0  0
  -18.9910  -18.3690   39.0570 O   0  0  0  0  0  0  0  0  0  0  0  0
  -18.3540  -18.4860   38.3340 H   0  0  0  0  0  0  0  0  0  0  0  0
  -13.5670  -14.4830   32.7570 N   0  0  0  0  0  0  0  0  0  0  0  0
  -12.9260  -14.8410   32.1020 H   0  0  0  0  0  0  0  0  0  0  0  0
  -14.6160  -13.5030   32.3240 C   0  0  0  0  0  0  0  0  0  0  0  0
  -15.3470  -12.6850   33.3470 C   0  0  0  0  0  0  0  0  0  0  0  0
  -16.3960  -11.7040   32.9130 C   0  0  0  0  0  0  0  0  0  0  0  0
  -16.7140  -11.5420   31.4560 C   0  0  0  0  0  0  0  0  0  0  0  0
  -15.9840  -12.3600   30.4340 C   0  0  0  0  0  0  0  0  0  0  0  0
  -14.9350  -13.3400   30.8670 C   0  0  0  0  0  0  0  0  0  0  0  0
  -15.1280  -12.7960   34.3490 H   0  0  0  0  0  0  0  0  0  0  0  0
  -16.8990  -11.1420   33.6170 H   0  0  0  0  0  0  0  0  0  0  0  0
  -16.2020  -12.2480   29.4320 H   0  0  0  0  0  0  0  0  0  0  0  0
  -14.4320  -13.9030   30.1630 H   0  0  0  0  0  0  0  0  0  0  0  0
  -17.7640  -10.5610   31.0220 S   0  0  2  0  0  0  0  0  0  0  0  0
  -18.7810  -11.2800   31.8590 O   0  0  0  0  0  0  0  0  0  0  0  0
  -16.7470   -9.8440   30.1870 O   0  0  0  0  0  0  0  0  0  0  0  0
  -18.8130   -9.5810   30.5890 N   0  0  0  0  0  0  0  0  0  0  0  0
  -19.7690   -9.6710   30.9340 H   0  0  0  0  0  0  0  0  0  0  0  0
  -18.5710   -8.8250   29.9490 H   0  0  0  0  0  0  0  0  0  0  0  0
  1  2  1  0
  1 17  1  0
  2 12  1  0
  3 13  1  0
  3  2  2  0
  4  3  1  0
  5  4  2  0
  5  6  1  0
  6  1  2  0
  7  5  1  0
  8  7  2  0
  9  7  1  0
  9 11  1  0
 10  9  2  0
 11  4  1  0
 14  6  1  0
 15 11  1  0
 17 18  1  0
 19 16  1  0
 20 22  1  0
 20 21  1  0
 23 20  1  0
 23 24  1  0
 24 26  1  0
 24 25  1  0
 24 27  1  0
 28 23  1  0
 29 28  1  0
 30 28  1  0
 31 28  1  0
 32 23  1  0
 32 33  1  0
 34 32  1  0
 35 32  1  0
 36 35  1  0
 37  8  1  0
 38 37  1  0
 39 37  1  0
 39 40  1  0
 40 45  1  0
 41 40  2  0
 41 46  1  0
 42 41  1  0
 43 44  1  0
 43 42  2  0
 44 39  2  0
 47 43  1  0
 48 44  1  0
 49 42  1  0
 49 50  2  0
 51 49  2  0
 52 53  1  0
 52 49  1  0
 54 52  1  0
M  END
>  <minimizedAffinity>  (124) 
-9.62793159

$$$$

     RDKit          3D

 56 52  0  0  0  0  0  0  0  0999 V2000
  -16.8170  -13.9420   34.4310 C   0  0  0  0  0  0  0  0  0  0  0  0
  -18.0350  -13.9140   35.3060 N   0  0  0  0  0  0  0  0  0  0  0  0
  -17.7210  -14.6740   36.5610 C   0  0  0  0  0  0  0  0  0  0  0  0
  -16.3100  -15.1720   36.4610 N   0  0  0  0  0  2  0  0  0  0  0  0
  -15.7520  -14.7200   35.1440 C   0  0  0  0  0  0  0  0  0  0  0  0
  -18.3630  -14.8260   37.3540 H   0  0  0  0  0  0  0  0  0  0  0  0
  -15.5850  -15.9810   37.4950 C   0  0  0  0  0  1  0  0  0  0  0  0
  -15.6450  -17.4790   37.4540 C   0  0  0  0  0  2  0  0  0  0  0  0
  -14.9200  -18.2870   38.4890 C   0  0  0  0  0  2  0  0  0  0  0  0
  -14.1350  -17.5980   39.5640 N   0  0  0  0  0  1  0  0  0  0  0  0
  -14.0740  -16.1000   39.6050 C   0  0  0  0  0  2  0  0  0  0  0  0
  -14.8000  -15.2910   38.5700 C   0  0  0  0  0  2  0  0  0  0  0  0
  -15.0680  -16.5580   38.2330 H   0  0  0  0  0  0  0  0  0  0  0  0
  -16.2050  -17.9710   36.6870 H   0  0  0  0  0  0  0  0  0  0  0  0
  -15.6880  -18.5480   37.4240 H   0  0  0  0  0  0  0  0  0  0  0  0
  -14.9630  -19.3570   38.4590 H   0  0  0  0  0  0  0  0  0  0  0  0
  -14.4030  -18.8650   39.2260 H   0  0  0  0  0  0  0  0  0  0  0  0
  -13.6410  -18.1470   40.2680 H   0  0  0  0  0  0  0  0  0  0  0  0
  -13.5140  -15.6080   40.3720 H   0  0  0  0  0  0  0  0  0  0  0  0
  -14.0320  -15.0310   39.6340 H   0  0  0  0  0  0  0  0  0  0  0  0
  -14.7570  -14.2220   38.6000 H   0  0  0  0  0  0  0  0  0  0  0  0
  -15.3170  -14.7140   37.8320 H   0  0  0  0  0  0  0  0  0  0  0  0
  -16.3020  -11.3940   29.0230 F   0  0  0  0  0  0  0  0  0  0  0  0
  -16.4310  -12.0310   30.3750 C   0  0  0  0  0  0  0  0  0  0  0  0
  -15.5360  -11.5960   31.4970 C   0  0  0  0  0  0  0  0  0  0  0  0
  -15.6640  -12.2340   32.8490 C   0  0  0  0  0  0  0  0  0  0  0  0
  -16.6890  -13.3050   33.0790 C   0  0  0  0  0  0  0  0  0  0  0  0
  -17.5830  -13.7400   31.9560 C   0  0  0  0  0  0  0  0  0  0  0  0
  -17.4550  -13.1030   30.6050 C   0  0  0  0  0  0  0  0  0  0  0  0
  -14.8310  -10.8590   31.3400 H   0  0  0  0  0  0  0  0  0  0  0  0
  -15.0480  -11.9340   33.6210 H   0  0  0  0  0  0  0  0  0  0  0  0
  -18.2880  -14.4770   32.1140 H   0  0  0  0  0  0  0  0  0  0  0  0
  -18.0710  -13.4020   29.8330 H   0  0  0  0  0  0  0  0  0  0  0  0
  -14.3690  -14.9970   34.6300 C   0  0  0  0  0  0  0  0  0  0  0  0
  -14.1800  -15.5700   33.2570 C   0  0  0  0  0  0  0  0  0  0  0  0
  -12.7980  -15.8480   32.7440 C   0  0  0  0  0  3  0  0  0  0  0  0
  -11.6060  -15.5520   33.6040 N   0  0  0  0  0  0  0  0  0  0  0  0
  -11.7950  -14.9790   34.9770 C   0  0  0  0  0  0  0  0  0  0  0  0
  -13.1770  -14.7020   35.4900 N   0  0  0  0  0  0  0  0  0  0  0  0
  -15.0020  -15.7740   32.6650 H   0  0  0  0  0  0  0  0  0  0  0  0
  -12.6690  -16.2420   31.7990 H   0  0  0  0  0  0  0  0  0  0  0  0
  -10.6010  -14.6830   35.8370 O   0  0  0  0  0  0  0  0  0  0  0  0
  -10.0550  -15.7410   36.7500 C   0  0  0  0  0  0  0  0  0  0  0  0
  -10.9490  -16.8400   37.2440 C   0  0  0  0  0  0  0  0  0  0  0  0
  -10.4020  -17.8970   38.1570 C   0  0  0  0  0  0  0  0  0  0  0  0
   -8.9630  -17.8560   38.5750 C   0  0  0  0  0  3  0  0  0  0  0  0
   -8.0690  -16.7570   38.0810 C   0  0  0  0  0  0  0  0  0  0  0  0
   -8.6150  -15.7000   37.1680 C   0  0  0  0  0  0  0  0  0  0  0  0
   -6.7020  -16.9760   38.6590 O   0  0  0  0  0  0  0  0  0  0  0  0
   -6.7510  -18.2100   39.5110 C   0  0  0  0  0  3  0  0  0  0  0  0
   -8.1480  -18.7540   39.4590 O   0  0  0  0  0 15  0  0  0  0  0  0
  -11.9400  -16.8680   36.9560 H   0  0  0  0  0  0  0  0  0  0  0  0
  -11.0170  -18.6530   38.4970 H   0  0  0  0  0  0  0  0  0  0  0  0
   -8.0010  -14.9440   36.8280 H   0  0  0  0  0  0  0  0  0  0  0  0
   -5.9330  -18.6280   40.0590 H   0  0  0  0  0  0  0  0  0  0  0  0
   -6.9470  -19.0980   40.0740 H   0  0  0  0  0  0  0  0  0  0  0  0
  1  5  2  0
  1  2  1  0
  2  3  2  0
  3  6  1  0
  4  3  1  0
  5  4  1  0
  7 13  1  0
  9 17  1  0
 10 18  1  0
 11 20  1  0
 11 19  1  0
 12 21  1  0
 14  8  1  0
 15  8  1  0
 16  9  1  0
 22 12  1  0
 23 24  1  0
 24 29  2  0
 24 25  1  0
 25 26  2  0
 26 27  1  0
 26 31  1  0
 27  1  1  0
 28 32  1  0
 28 27  2  0
 29 28  1  0
 30 25  1  0
 33 29  1  0
 34  5  1  0
 34 39  1  0
 35 34  2  0
 36 35  1  0
 36 37  1  0
 37 38  2  0
 38 39  2  0
 38 42  1  0
 40 35  1  0
 41 36  1  0
 42 43  1  0
 43 48  2  0
 43 44  1  0
 44 45  2  0
 45 53  1  0
 45 46  1  0
 47 46  2  0
 47 49  1  0
 48 47  1  0
 49 50  1  0
 50 55  1  0
 50 56  1  0
 52 44  1  0
 54 48  1  0
M  END
>  <minimizedAffinity>  (125) 
-8.33159637

$$$$

     RDKit          3D

 64 62  0  0  0  0  0  0  0  0999 V2000
  -11.5790  -15.4700   35.2280 C   0  0  0  0  0  0  0  0  0  0  0  0
  -10.3580  -16.2530   34.8480 C   0  0  0  0  0  0  0  0  0  0  0  0
   -9.7380  -16.7830   36.1080 C   0  0  0  0  0  0  0  0  0  0  0  0
   -8.5180  -17.6220   36.3500 N   0  0  0  0  0  0  0  0  0  0  0  0
   -8.1370  -18.0040   37.7490 C   0  0  0  0  0  0  0  0  0  0  0  0
   -8.9750  -17.5470   38.9070 N   0  0  0  0  0  0  0  0  0  0  0  0
  -10.1940  -16.7080   38.6640 C   0  0  0  0  0  0  0  0  0  0  0  0
  -10.5760  -16.3260   37.2650 C   0  0  0  0  0  0  0  0  0  0  0  0
  -11.7150  -15.5140   36.7210 S   0  0  0  0  0  0  0  0  0  0  0  0
  -10.0070  -16.4020   33.8900 H   0  0  0  0  0  0  0  0  0  0  0  0
   -7.2980  -18.5810   37.9160 H   0  0  0  0  0  0  0  0  0  0  0  0
  -13.4280  -14.0600   33.3320 C   0  0  0  0  0 15  0  0  0  0  0  0
  -12.5040  -14.7650   34.2800 C   0  0  0  0  0  1  0  0  0  0  0  0
  -15.9750  -11.7960   31.4720 C   0  0  0  0  0  2  0  0  0  0  0  0
  -15.5770  -12.7430   30.3790 C   0  0  0  0  0  2  0  0  0  0  0  0
  -14.5740  -13.7070   30.9430 N   0  0  0  0  0  1  0  0  0  0  0  0
  -14.3530  -13.3550   32.3850 C   0  0  0  0  0  2  0  0  0  0  0  0
  -15.2190  -12.1730   32.7120 C   0  0  0  0  0  3  0  0  0  0  0  0
  -16.4330  -11.6550   30.5160 H   0  0  0  0  0  0  0  0  0  0  0  0
  -15.9430  -12.7340   29.3740 H   0  0  0  0  0  0  0  0  0  0  0  0
  -15.1930  -13.4890   29.7150 H   0  0  0  0  0  0  0  0  0  0  0  0
  -14.1230  -14.4670   30.4350 H   0  0  0  0  0  0  0  0  0  0  0  0
  -13.8010  -14.1840   31.9970 H   0  0  0  0  0  0  0  0  0  0  0  0
  -15.2850  -11.6870   33.6620 H   0  0  0  0  0  0  0  0  0  0  0  0
  -15.8860  -11.3400   32.7840 H   0  0  0  0  0  0  0  0  0  0  0  0
  -16.9570  -10.6690   31.3480 O   0  0  0  0  0  0  0  0  0  0  0  0
  -18.4620  -10.5610   29.2340 N   0  0  0  0  0  0  0  0  0  0  0  0
  -18.2810  -10.8980   30.6850 C   0  0  0  0  0  0  0  0  0  0  0  0
  -19.4270  -11.4630   31.4710 O   0  0  0  0  0  0  0  0  0  0  0  0
  -19.7870  -10.7900   28.5700 C   0  0  0  0  0  0  0  0  0  0  0  0
  -20.6040  -11.1930   29.1300 H   0  0  0  0  0  0  0  0  0  0  0  0
  -19.9150  -10.5500   27.5340 H   0  0  0  0  0  0  0  0  0  0  0  0
  -20.7330  -10.9530   28.0960 H   0  0  0  0  0  0  0  0  0  0  0  0
  -17.3160   -9.9960   28.4470 C   0  0  0  0  0  0  0  0  0  0  0  0
  -17.4450   -9.7560   27.4120 H   0  0  0  0  0  0  0  0  0  0  0  0
  -16.3710   -9.8320   28.9210 H   0  0  0  0  0  0  0  0  0  0  0  0
  -16.4990   -9.5920   27.8860 H   0  0  0  0  0  0  0  0  0  0  0  0
  -11.0320  -16.2510   39.8220 N   0  0  0  0  0  0  0  0  0  0  0  0
  -10.6070  -15.8120   40.5930 H   0  0  0  0  0  0  0  0  0  0  0  0
  -12.5170  -16.4640   39.8030 C   0  0  0  0  0  0  0  0  0  0  0  0
  -13.3960  -15.6990   40.7470 C   0  0  0  0  0  0  0  0  0  0  0  0
  -14.8810  -15.9110   40.7280 C   0  0  0  0  0  0  0  0  0  0  0  0
  -15.4860  -16.8890   39.7650 C   0  0  0  0  0  0  0  0  0  0  0  0
  -14.6070  -17.6540   38.8210 C   0  0  0  0  0  0  0  0  0  0  0  0
  -15.2120  -18.6320   37.8580 Cl  0  0  0  0  0  0  0  0  0  0  0  0
  -13.1220  -17.4420   38.8400 C   0  0  0  0  0  0  0  0  0  0  0  0
  -12.9800  -15.0260   41.4090 H   0  0  0  0  0  0  0  0  0  0  0  0
  -15.4860  -15.3850   41.3770 H   0  0  0  0  0  0  0  0  0  0  0  0
  -12.5170  -17.9680   38.1900 H   0  0  0  0  0  0  0  0  0  0  0  0
  -16.9710  -17.1020   39.7460 O   0  0  0  0  0  0  0  0  0  0  0  0
  -17.8880  -15.9620   39.4120 C   0  0  0  0  0  0  0  0  0  0  0  0
  -18.3580  -15.4070   40.1960 H   0  0  0  0  0  0  0  0  0  0  0  0
  -18.5420  -15.1490   39.1730 H   0  0  0  0  0  0  0  0  0  0  0  0
  -18.1440  -15.6020   37.9780 C   0  0  0  0  0  0  0  0  0  0  0  0
  -19.5320  -15.2500   37.5310 C   0  0  0  0  0  0  0  0  0  0  0  0
  -19.7890  -14.8900   36.0970 C   0  0  0  0  0  0  0  0  0  0  0  0
  -18.6580  -14.8810   35.1120 C   0  0  0  0  0  0  0  0  0  0  0  0
  -17.2700  -15.2320   35.5600 C   0  0  0  0  0  0  0  0  0  0  0  0
  -16.1390  -15.2230   34.5750 F   0  0  0  0  0  0  0  0  0  0  0  0
  -17.0130  -15.5930   36.9930 C   0  0  0  0  0  0  0  0  0  0  0  0
  -20.3100  -15.2560   38.2080 H   0  0  0  0  0  0  0  0  0  0  0  0
  -20.7430  -14.6480   35.7890 H   0  0  0  0  0  0  0  0  0  0  0  0
  -18.8340  -14.6320   34.1260 H   0  0  0  0  0  0  0  0  0  0  0  0
  -16.0580  -15.8350   37.3020 H   0  0  0  0  0  0  0  0  0  0  0  0
  1  9  1  0
  2  1  2  0
  2  3  1  0
  3  4  1  0
  3  8  2  0
  4  5  2  0
  5 11  1  0
  5  6  1  0
  7  6  2  0
  7 38  1  0
  8  7  1  0
  9  8  1  0
 10  2  1  0
 13  1  1  0
 17 18  1  0
 18 25  1  0
 18 24  1  0
 19 14  1  0
 20 15  1  0
 21 15  1  0
 22 16  1  0
 23 17  1  0
 26 14  1  0
 27 28  1  0
 28 26  1  0
 28 29  2  0
 30 31  1  0
 30 27  1  0
 32 30  1  0
 33 30  1  0
 34 36  1  0
 34 27  1  0
 35 34  1  0
 37 34  1  0
 38 39  1  0
 40 38  1  0
 40 41  1  0
 41 47  1  0
 42 41  2  0
 42 48  1  0
 43 42  1  0
 44 46  1  0
 44 43  2  0
 45 44  1  0
 46 40  2  0
 49 46  1  0
 50 43  1  0
 51 50  1  0
 51 52  1  0
 53 51  1  0
 54 51  1  0
 55 54  1  0
 55 61  1  0
 56 55  2  0
 57 58  2  0
 57 56  1  0
 58 60  1  0
 59 58  1  0
 60 64  1  0
 60 54  2  0
 62 56  1  0
 63 57  1  0
M  END
>  <minimizedAffinity>  (126) 
-11.0625305

$$$$

     RDKit          3D

 65 65  0  0  1  0  0  0  0  0999 V2000
  -11.3120  -16.8840   37.2400 C   0  0  0  0  0  0  0  0  0  0  0  0
  -10.5710  -16.2550   36.0980 C   0  0  0  0  0  3  0  0  0  0  0  0
  -11.3160  -15.4520   35.0720 C   0  0  0  0  0  1  0  0  0  0  0  0
  -12.8010  -15.2790   35.1900 C   0  0  0  0  0  0  0  0  0  0  0  0
  -13.5410  -15.9080   36.3320 C   0  0  0  0  0  0  0  0  0  0  0  0
  -12.7960  -16.7100   37.3570 C   0  0  0  0  0  0  0  0  0  0  0  0
  -13.2620  -14.4380   34.0350 N   0  0  0  0  0  0  0  0  0  0  0  0
  -14.6750  -14.0180   33.7600 C   0  0  0  0  0  0  0  0  0  0  0  0
  -15.7770  -14.4420   34.6850 O   0  0  0  0  0  0  0  0  0  0  0  0
  -12.0610  -14.0930   33.2040 C   0  0  0  0  0  3  0  0  0  0  0  0
  -10.8590  -14.7190   33.8450 C   0  0  0  0  0  2  0  0  0  0  0  0
   -9.5490  -16.3740   36.0170 H   0  0  0  0  0  0  0  0  0  0  0  0
  -14.5640  -15.7880   36.4130 H   0  0  0  0  0  0  0  0  0  0  0  0
  -12.0630  -13.5030   32.3120 H   0  0  0  0  0  0  0  0  0  0  0  0
  -11.1190  -13.9360   32.7250 H   0  0  0  0  0  0  0  0  0  0  0  0
   -9.8510  -14.6550   33.4900 H   0  0  0  0  0  0  0  0  0  0  0  0
  -10.1080  -15.2240   34.4180 H   0  0  0  0  0  0  0  0  0  0  0  0
  -13.5370  -17.3390   38.5000 N   0  0  0  0  0  4  0  0  0  0  0  0
  -15.0130  -17.1170   38.6500 C   0  0  0  0  0  0  0  0  0  0  0  0
  -15.7490  -16.2670   37.6580 N   0  0  0  0  0  0  0  0  0  0  0  0
  -17.2240  -16.0450   37.8070 C   0  0  0  0  0  3  0  0  0  0  0  0
  -17.9650  -16.6740   38.9500 C   0  0  0  0  0  0  0  0  0  0  0  0
  -19.4090  -16.6350   39.3530 C   0  0  0  0  0  0  0  0  0  0  0  0
  -19.5660  -17.4610   40.5940 C   0  0  0  0  0  0  0  0  0  0  0  0
  -18.2200  -18.0110   40.9590 N   0  0  0  0  0  0  0  0  0  0  0  0
  -17.2300  -17.5250   39.9430 C   0  0  0  0  0  0  0  0  0  0  0  0
  -15.7540  -17.7460   39.7920 N   0  0  0  0  0  2  0  0  0  0  0  0
  -13.0550  -17.8970   39.1510 H   0  0  0  0  0  0  0  0  0  0  0  0
  -20.1630  -16.1280   38.8620 H   0  0  0  0  0  0  0  0  0  0  0  0
  -20.4470  -17.6230   41.1080 H   0  0  0  0  0  0  0  0  0  0  0  0
  -18.0200  -18.5900   41.7300 H   0  0  0  0  0  0  0  0  0  0  0  0
  -17.9600  -15.1940   36.8140 N   0  0  0  0  0  0  0  0  0  0  0  0
  -18.2830  -15.5710   35.3980 C   0  0  0  0  0  3  0  0  0  0  0  0
  -19.0240  -14.4270   34.7720 C   0  0  0  0  0  2  0  0  0  0  0  0
  -19.1580  -13.3430   35.8010 C   0  0  0  0  0  3  0  0  0  0  0  0
  -19.7950  -11.9860   35.7510 C   0  0  0  0  0  0  0  0  0  0  0  0
  -19.7740  -11.1030   36.9640 C   0  0  0  0  0  0  0  0  0  0  0  0
  -19.1160  -11.5770   38.2260 C   0  0  0  0  0  0  0  0  0  0  0  0
  -18.4800  -12.9340   38.2750 C   0  0  0  0  0  0  0  0  0  0  0  0
  -18.5010  -13.8170   37.0630 C   0  0  0  0  0  0  0  0  0  0  0  0
  -18.0290  -16.4930   34.9210 H   0  0  0  0  0  0  0  0  0  0  0  0
  -18.5860  -15.6880   34.3790 H   0  0  0  0  0  0  0  0  0  0  0  0
  -19.3920  -14.3900   33.7690 H   0  0  0  0  0  0  0  0  0  0  0  0
  -19.5350  -13.5350   34.4740 H   0  0  0  0  0  0  0  0  0  0  0  0
  -20.2470  -11.6590   34.8830 H   0  0  0  0  0  0  0  0  0  0  0  0
  -20.2120  -10.1690   36.9300 H   0  0  0  0  0  0  0  0  0  0  0  0
  -19.1020  -10.9700   39.0600 H   0  0  0  0  0  0  0  0  0  0  0  0
  -18.0270  -13.2610   39.1440 H   0  0  0  0  0  0  0  0  0  0  0  0
  -14.9860  -13.1730   32.5600 C   0  0  0  0  0  0  0  0  0  0  0  0
  -14.2370  -13.0050   31.8150 H   0  0  0  0  0  0  0  0  0  0  0  0
  -15.2080  -12.5710   31.7040 H   0  0  0  0  0  0  0  0  0  0  0  0
  -16.3480  -12.5640   32.4040 N   0  0  0  0  0  0  0  0  0  0  0  0
  -17.4060  -13.2840   31.6220 C   0  0  0  0  0  0  0  0  0  0  0  0
  -17.1900  -14.2310   31.1740 H   0  0  0  0  0  0  0  0  0  0  0  0
  -18.3780  -12.8490   31.5110 H   0  0  0  0  0  0  0  0  0  0  0  0
  -18.1610  -13.7970   31.0630 H   0  0  0  0  0  0  0  0  0  0  0  0
  -16.6520  -11.2360   33.0310 C   0  0  0  0  0  0  0  0  0  0  0  0
  -17.6230  -10.8010   32.9200 H   0  0  0  0  0  0  0  0  0  0  0  0
  -15.8970  -10.7230   33.5900 H   0  0  0  0  0  0  0  0  0  0  0  0
  -16.8680  -10.2880   33.4790 H   0  0  0  0  0  0  0  0  0  0  0  0
  -10.5670  -17.6860   38.2660 O   0  0  0  0  0  0  0  0  0  0  0  0
   -9.0800  -17.5420   38.3950 C   0  0  0  0  0  0  0  0  0  0  0  0
   -8.5480  -18.1150   39.1260 H   0  0  0  0  0  0  0  0  0  0  0  0
   -8.5490  -16.8670   37.7550 H   0  0  0  0  0  0  0  0  0  0  0  0
   -8.0180  -17.4400   38.4870 H   0  0  0  0  0  0  0  0  0  0  0  0
  1  6  1  0
  1 61  1  0
  2  1  2  0
  3  4  1  0
  4  5  2  0
  5 13  1  0
  5  6  1  0
  6 18  2  0
  7  4  1  0
  8  7  1  0
  8  9  2  0
 10  7  1  0
 11 17  1  0
 12  2  1  0
 14 10  1  0
 15 10  1  0
 16 11  1  0
 18 19  1  0
 18 28  1  0
 19 27  1  0
 20 21  1  0
 20 19  2  0
 21 32  1  0
 21 22  1  0
 22 23  1  0
 22 26  2  0
 23 24  2  0
 24 25  1  0
 24 30  1  0
 25 31  1  0
 26 25  1  0
 27 26  1  0
 29 23  1  0
 32 40  1  0
 33 32  1  0
 35 40  1  0
 36 35  2  0
 36 37  1  0
 37 38  2  0
 38 39  1  0
 38 47  1  0
 39 48  1  0
 40 39  2  0
 41 33  1  0
 42 33  1  0
 43 34  1  0
 44 34  1  0
 45 36  1  0
 46 37  1  0
 49  8  1  0
 50 49  1  0
 51 49  1  0
 52 49  1  0
 52 57  1  0
 53 52  1  0
 54 53  1  0
 55 53  1  0
 56 53  1  0
 57 60  1  0
 57 59  1  0
 58 57  1  0
 61 62  1  0
 62 65  1  0
 62 63  1  0
 64 62  1  0
M  END
>  <minimizedAffinity>  (127) 
-9.50268555

$$$$

     RDKit          3D

 52 55  0  0  1  0  0  0  0  0999 V2000
  -16.0380  -16.0140   38.5010 C   0  0  0  0  0  0  0  0  0  0  0  0
  -14.8980  -16.7960   37.9180 C   0  0  0  0  0  0  0  0  0  0  0  0
  -13.7440  -16.7130   38.8710 C   0  0  0  0  0  0  0  0  0  0  0  0
  -14.1690  -15.8790   40.0440 C   0  0  0  0  0  0  0  0  0  0  0  0
  -15.5880  -15.4480   39.8140 S   0  0  0  0  0  0  0  0  0  0  0  0
  -14.9070  -17.3030   37.0190 H   0  0  0  0  0  0  0  0  0  0  0  0
  -18.8190  -14.1880   33.9660 C   0  0  0  0  0  0  0  0  0  0  0  0
  -19.7280  -14.7250   35.0310 C   0  0  0  0  0  0  0  0  0  0  0  0
  -19.1510  -15.2550   36.3110 C   0  0  0  0  0  0  0  0  0  0  0  0
  -19.7930  -15.8440   37.5330 N   0  0  0  0  0  0  0  0  0  0  0  0
  -18.7040  -16.2000   38.5020 C   0  0  0  0  0  0  0  0  0  0  0  0
  -17.3910  -15.8310   37.8790 N   0  0  0  0  0  0  0  0  0  0  0  0
  -17.6670  -15.2470   36.5250 C   0  0  0  0  0  0  0  0  0  0  0  0
  -16.7590  -14.7100   35.4590 C   0  0  0  0  0  0  0  0  0  0  0  0
  -17.3350  -14.1800   34.1800 C   0  0  0  0  0  0  0  0  0  0  0  0
  -20.7500  -14.7310   34.8840 H   0  0  0  0  0  0  0  0  0  0  0  0
  -18.8360  -16.6240   39.4330 H   0  0  0  0  0  0  0  0  0  0  0  0
  -15.7380  -14.7040   35.6060 H   0  0  0  0  0  0  0  0  0  0  0  0
  -19.3950  -13.6580   32.6860 O   0  0  0  0  0  0  0  0  0  0  0  0
  -19.5500  -12.1780   32.4900 C   0  0  0  0  0  0  0  0  0  0  0  0
  -19.2500  -11.5020   33.2620 H   0  0  0  0  0  0  0  0  0  0  0  0
  -19.9620  -11.8010   31.5770 H   0  0  0  0  0  0  0  0  0  0  0  0
  -19.6610  -11.1230   32.3490 H   0  0  0  0  0  0  0  0  0  0  0  0
  -16.4260  -13.6420   33.1140 O   0  0  0  0  0  0  0  0  0  0  0  0
  -14.9820  -13.3820   33.4220 C   0  0  0  0  0  0  0  0  0  0  0  0
  -14.3330  -12.9980   32.6610 H   0  0  0  0  0  0  0  0  0  0  0  0
  -14.5980  -13.5800   34.4010 H   0  0  0  0  0  0  0  0  0  0  0  0
  -13.9510  -13.1960   33.6410 H   0  0  0  0  0  0  0  0  0  0  0  0
  -13.3250  -15.5380   41.2350 C   0  0  0  0  0  3  0  0  0  0  0  0
  -12.4160  -16.5710   41.8320 O   0  0  0  0  0  1  0  0  0  0  0  0
  -13.3890  -14.1620   41.8310 C   0  0  0  0  0  0  0  0  0  0  0  0
  -14.0380  -13.4250   41.4050 H   0  0  0  0  0  0  0  0  0  0  0  0
  -12.7870  -13.9180   42.6810 H   0  0  0  0  0  0  0  0  0  0  0  0
  -13.4360  -13.1810   42.2550 H   0  0  0  0  0  0  0  0  0  0  0  0
  -12.3980  -17.3510   38.6860 O   0  0  0  0  0  0  0  0  0  0  0  0
  -11.2220  -16.5160   38.2770 C   0  0  0  0  0  0  0  0  0  0  0  0
  -10.5950  -16.0730   39.0220 H   0  0  0  0  0  0  0  0  0  0  0  0
  -10.3820  -15.9190   37.9860 H   0  0  0  0  0  0  0  0  0  0  0  0
  -10.9230  -16.3000   36.8230 C   0  0  0  0  0  0  0  0  0  0  0  0
  -11.8990  -15.5590   35.9580 C   0  0  0  0  0  0  0  0  0  0  0  0
  -11.6000  -15.3440   34.5040 C   0  0  0  0  0  0  0  0  0  0  0  0
  -10.3250  -15.8700   33.9150 C   0  0  0  0  0  0  0  0  0  0  0  0
   -9.3490  -16.6100   34.7790 C   0  0  0  0  0  0  0  0  0  0  0  0
   -9.6470  -16.8260   36.2340 C   0  0  0  0  0  0  0  0  0  0  0  0
  -12.7770  -15.1980   36.3640 H   0  0  0  0  0  0  0  0  0  0  0  0
  -12.2720  -14.8350   33.9090 H   0  0  0  0  0  0  0  0  0  0  0  0
  -10.1190  -15.7210   32.9140 H   0  0  0  0  0  0  0  0  0  0  0  0
   -8.4710  -16.9720   34.3750 H   0  0  0  0  0  0  0  0  0  0  0  0
   -8.6710  -17.5660   37.0990 C   0  0  0  0  0  0  0  0  0  0  0  0
   -7.6940  -18.3070   37.9640 F   0  0  0  0  0  0  0  0  0  0  0  0
   -9.2500  -18.8700   36.6350 F   0  0  0  0  0  0  0  0  0  0  0  0
   -8.0930  -16.2620   37.5620 F   0  0  0  0  0  0  0  0  0  0  0  0
  1  5  1  0
  2  1  2  0
  2  3  1  0
  3  4  2  0
  4 29  1  0
  5  4  1  0
  6  2  1  0
  7 15  2  0
  7  8  1  0
  8  9  2  0
  9 13  1  0
  9 10  1  0
 10 11  2  0
 11 17  1  0
 12  1  1  0
 12 11  1  0
 13 12  1  0
 14 18  1  0
 14 13  2  0
 15 14  1  0
 16  8  1  0
 19  7  1  0
 20 19  1  0
 20 21  1  0
 22 20  1  0
 23 20  1  0
 24 25  1  0
 24 15  1  0
 25 28  1  0
 25 27  1  0
 26 25  1  0
 29 31  1  0
 29 30  1  0
 31 34  1  0
 31 33  1  0
 32 31  1  0
 35  3  1  0
 36 35  1  0
 36 37  1  0
 38 36  1  0
 39 36  1  0
 40 45  1  0
 40 39  2  0
 41 40  1  0
 42 41  2  0
 42 43  1  0
 43 44  2  0
 44 39  1  0
 44 49  1  0
 46 41  1  0
 47 42  1  0
 48 43  1  0
 49 52  1  0
 49 50  1  0
 51 49  1  0
M  END
>  <minimizedAffinity>  (128) 
-9.86400604

$$$$

     RDKit          3D

 29 31  0  0  0  0  0  0  0  0999 V2000
  -16.6440  -16.4690   37.9640 C   0  0  0  0  0  0  0  0  0  0  0  0
  -15.7560  -17.6740   37.8770 C   0  0  0  0  0  0  0  0  0  0  0  0
  -14.3530  -17.5350   37.3670 C   0  0  0  0  0  0  0  0  0  0  0  0
  -13.8370  -16.1920   36.9450 C   0  0  0  0  0  0  0  0  0  0  0  0
  -14.7250  -14.9870   37.0320 C   0  0  0  0  0  0  0  0  0  0  0  0
  -16.1300  -15.1250   37.5420 C   0  0  0  0  0  0  0  0  0  0  0  0
  -16.1100  -18.5990   38.1670 H   0  0  0  0  0  0  0  0  0  0  0  0
  -13.7410  -18.3650   37.3070 H   0  0  0  0  0  0  0  0  0  0  0  0
  -14.3710  -14.0620   36.7410 H   0  0  0  0  0  0  0  0  0  0  0  0
  -16.7400  -14.2960   37.6020 H   0  0  0  0  0  0  0  0  0  0  0  0
  -12.4340  -16.0530   36.4350 C   0  0  0  0  0  0  0  0  0  0  0  0
  -12.0350  -15.6880   35.0360 C   0  0  0  0  0  3  0  0  0  0  0  0
  -10.5360  -15.6640   34.9700 O   0  0  0  0  0  0  0  0  0  0  0  0
  -10.0080  -16.0150   36.3300 C   0  0  0  0  0  0  0  0  0  0  0  0
   -8.6120  -16.1460   36.8610 N   0  0  0  0  0  0  0  0  0  0  0  0
   -8.3870  -16.5180   38.2970 C   0  0  0  0  0  3  0  0  0  0  0  0
   -9.5590  -16.7580   39.2020 N   0  0  0  0  0  0  0  0  0  0  0  0
  -10.9560  -16.6270   38.6710 C   0  0  0  0  0  0  0  0  0  0  0  0
  -11.1800  -16.2550   37.2350 C   0  0  0  0  0  0  0  0  0  0  0  0
  -12.6790  -15.4880   34.2550 H   0  0  0  0  0  0  0  0  0  0  0  0
   -7.4260  -16.6080   38.6630 H   0  0  0  0  0  0  0  0  0  0  0  0
  -12.1280  -16.8670   39.5760 N   0  0  0  0  0  0  0  0  0  0  0  0
  -11.9800  -17.1110   40.5180 H   0  0  0  0  0  0  0  0  0  0  0  0
  -13.0450  -16.7810   39.2270 H   0  0  0  0  0  0  0  0  0  0  0  0
  -18.0490  -16.6070   38.4740 O   0  0  0  0  0  0  0  0  0  0  0  0
  -18.3700  -17.6390   39.5150 C   0  0  0  0  0  0  0  0  0  0  0  0
  -17.5980  -18.2760   39.8930 H   0  0  0  0  0  0  0  0  0  0  0  0
  -19.3710  -17.7370   39.8780 H   0  0  0  0  0  0  0  0  0  0  0  0
  -18.6000  -18.3750   40.2570 H   0  0  0  0  0  0  0  0  0  0  0  0
  1 25  1  0
  2  1  1  0
  2  7  1  0
  3  2  2  0
  4  5  2  0
  4  3  1  0
  5  6  1  0
  6 10  1  0
  6  1  2  0
  8  3  1  0
  9  5  1  0
 11  4  1  0
 11 19  2  0
 12 11  1  0
 13 12  1  0
 13 14  1  0
 14 15  2  0
 14 19  1  0
 15 16  1  0
 16 21  1  0
 16 17  1  0
 18 17  2  0
 18 22  1  0
 19 18  1  0
 20 12  1  0
 22 23  1  0
 24 22  1  0
 25 26  1  0
 26 28  1  0
 26 27  1  0
 26 29  1  0
M  END
>  <minimizedAffinity>  (129) 
-7.47200966

$$$$

     RDKit          3D

 38 40  0  0  1  0  0  0  0  0999 V2000
  -13.4340  -15.5790   35.8280 C   0  0  0  0  0  0  0  0  0  0  0  0
  -14.5090  -14.9050   35.0300 C   0  0  0  0  0  3  0  0  0  0  0  0
  -14.2980  -14.0180   33.8380 C   0  0  0  0  0  0  0  0  0  0  0  0
  -12.9740  -13.6510   33.2360 O   0  0  0  0  0  0  0  0  0  0  0  0
  -15.6420  -13.5630   33.3530 N   0  0  0  0  0  0  0  0  0  0  0  0
  -16.6850  -14.1680   34.2460 C   0  0  0  0  0  0  0  0  0  0  0  0
  -18.1820  -14.0720   34.2490 C   0  0  0  0  0  0  0  0  0  0  0  0
  -18.9790  -14.8040   35.2880 C   0  0  0  0  0  0  0  0  0  0  0  0
  -18.2790  -15.6330   36.3230 C   0  0  0  0  0  0  0  0  0  0  0  0
  -16.7820  -15.7300   36.3200 C   0  0  0  0  0  0  0  0  0  0  0  0
  -15.9850  -14.9970   35.2810 C   0  0  0  0  0  0  0  0  0  0  0  0
  -15.8110  -12.9710   32.5850 H   0  0  0  0  0  0  0  0  0  0  0  0
  -18.6640  -13.5010   33.5360 H   0  0  0  0  0  0  0  0  0  0  0  0
  -20.0090  -14.7370   35.2900 H   0  0  0  0  0  0  0  0  0  0  0  0
  -18.8270  -16.1370   37.0380 H   0  0  0  0  0  0  0  0  0  0  0  0
  -16.3000  -16.3000   37.0330 H   0  0  0  0  0  0  0  0  0  0  0  0
  -13.7990  -16.4410   37.0010 C   0  0  0  0  0  0  0  0  0  0  0  0
  -14.8280  -16.5740   37.2660 H   0  0  0  0  0  0  0  0  0  0  0  0
  -13.0330  -16.9220   37.5700 H   0  0  0  0  0  0  0  0  0  0  0  0
  -14.0600  -17.0550   37.8370 H   0  0  0  0  0  0  0  0  0  0  0  0
  -11.9940  -15.3930   35.4550 N   0  0  0  0  0  4  0  0  0  0  0  0
  -11.7550  -14.8400   34.6760 H   0  0  0  0  0  0  0  0  0  0  0  0
  -10.9170  -16.0480   36.2690 C   0  0  0  0  0  0  0  0  0  0  0  0
   -9.7190  -16.6410   35.5880 C   0  0  0  0  0  0  0  0  0  0  0  0
   -8.6420  -17.2960   36.4020 C   0  0  0  0  0  0  0  0  0  0  0  0
   -8.7630  -17.3590   37.8960 C   0  0  0  0  0  0  0  0  0  0  0  0
   -9.9620  -16.7660   38.5760 C   0  0  0  0  0  0  0  0  0  0  0  0
  -11.0390  -16.1110   37.7630 C   0  0  0  0  0  0  0  0  0  0  0  0
   -9.6350  -16.5980   34.5610 H   0  0  0  0  0  0  0  0  0  0  0  0
   -7.8180  -17.7040   35.9330 H   0  0  0  0  0  0  0  0  0  0  0  0
  -10.0450  -16.8100   39.6040 H   0  0  0  0  0  0  0  0  0  0  0  0
  -11.8640  -15.7030   38.2310 H   0  0  0  0  0  0  0  0  0  0  0  0
   -7.6870  -18.0140   38.7090 S   0  0  1  0  0  0  0  0  0  0  0  0
   -8.5000  -19.2740   38.7700 O   0  0  0  0  0  0  0  0  0  0  0  0
   -6.8750  -16.7550   38.6490 O   0  0  0  0  0  0  0  0  0  0  0  0
   -6.6110  -18.6700   39.5230 N   0  0  0  0  0  0  0  0  0  0  0  0
   -6.7250  -19.6350   39.8350 H   0  0  0  0  0  0  0  0  0  0  0  0
   -5.7670  -18.1510   39.7640 H   0  0  0  0  0  0  0  0  0  0  0  0
  1 17  1  0
  2 11  1  0
  2  1  1  0
  3  2  1  0
  4  3  2  0
  5  3  1  0
  5  6  1  0
  6  7  2  0
  6 11  1  0
  7  8  1  0
  8 14  1  0
  8  9  2  0
  9 15  1  0
 10  9  1  0
 10 16  1  0
 11 10  2  0
 12  5  1  0
 13  7  1  0
 17 18  1  0
 17 19  1  0
 17 20  1  0
 21  1  2  0
 21 23  1  0
 22 21  1  0
 23 28  1  0
 24 23  2  0
 24 25  1  0
 25 26  2  0
 26 27  1  0
 26 33  1  0
 27 31  1  0
 28 32  1  0
 28 27  2  0
 29 24  1  0
 30 25  1  0
 33 34  2  0
 33 36  1  0
 35 33  2  0
 36 38  1  0
 36 37  1  0
M  END
>  <minimizedAffinity>  (130) 
-8.42144394

$$$$

     RDKit          3D

 57 60  0  0  0  0  0  0  0  0999 V2000
  -14.0840  -14.3450   33.8960 C   0  0  0  0  0  0  0  0  0  0  0  0
  -15.3060  -14.9800   34.4900 C   0  0  0  0  0  0  0  0  0  0  0  0
  -16.4900  -14.1320   34.1330 C   0  0  0  0  0  0  0  0  0  0  0  0
  -16.0000  -12.9720   33.3190 C   0  0  0  0  0  0  0  0  0  0  0  0
  -14.5130  -13.1030   33.1720 S   0  0  0  0  0  0  0  0  0  0  0  0
  -15.3280  -15.8490   35.0460 H   0  0  0  0  0  0  0  0  0  0  0  0
  -10.4150  -17.0630   37.1800 C   0  0  0  0  0  0  0  0  0  0  0  0
   -9.8280  -16.6540   35.8620 C   0  0  0  0  0  0  0  0  0  0  0  0
  -10.6700  -15.9180   34.8630 C   0  0  0  0  0  0  0  0  0  0  0  0
  -10.3680  -15.3900   33.4910 N   0  0  0  0  0  0  0  0  0  0  0  0
  -11.6110  -14.7360   32.9620 C   0  0  0  0  0  0  0  0  0  0  0  0
  -12.6790  -14.8600   34.0070 N   0  0  0  0  0  0  0  0  0  0  0  0
  -12.0980  -15.5900   35.1810 C   0  0  0  0  0  0  0  0  0  0  0  0
  -12.6850  -16.0000   36.5000 C   0  0  0  0  0  0  0  0  0  0  0  0
  -11.8440  -16.7360   37.4990 C   0  0  0  0  0  0  0  0  0  0  0  0
   -8.8440  -16.8790   35.6430 H   0  0  0  0  0  0  0  0  0  0  0  0
  -11.7110  -14.2810   32.0420 H   0  0  0  0  0  0  0  0  0  0  0  0
  -13.6680  -15.7750   36.7180 H   0  0  0  0  0  0  0  0  0  0  0  0
   -9.5730  -17.7990   38.1810 O   0  0  0  0  0  0  0  0  0  0  0  0
   -8.2770  -18.4220   37.7550 C   0  0  0  0  0  0  0  0  0  0  0  0
   -7.9530  -18.3420   36.7380 H   0  0  0  0  0  0  0  0  0  0  0  0
   -7.6770  -18.9480   38.4680 H   0  0  0  0  0  0  0  0  0  0  0  0
   -7.3520  -18.8670   37.4510 H   0  0  0  0  0  0  0  0  0  0  0  0
  -12.4310  -17.1450   38.8180 O   0  0  0  0  0  0  0  0  0  0  0  0
  -13.1420  -16.1350   39.6670 C   0  0  0  0  0  0  0  0  0  0  0  0
  -13.5610  -16.4260   40.6080 H   0  0  0  0  0  0  0  0  0  0  0  0
  -13.2310  -15.1210   39.3330 H   0  0  0  0  0  0  0  0  0  0  0  0
  -13.6500  -15.4130   40.2740 H   0  0  0  0  0  0  0  0  0  0  0  0
  -16.8480  -11.8730   32.7500 C   0  0  0  0  0  0  0  0  0  0  0  0
  -17.0700  -10.6140   33.5350 O   0  0  0  0  0  0  0  0  0  0  0  0
  -17.4750  -12.0320   31.3970 N   0  0  0  0  0  0  0  0  0  0  0  0
  -18.3230  -10.9340   30.8290 C   0  0  0  0  0  0  0  0  0  0  0  0
  -18.7700  -11.0480   29.8630 H   0  0  0  0  0  0  0  0  0  0  0  0
  -18.4810  -10.0360   31.3880 H   0  0  0  0  0  0  0  0  0  0  0  0
  -18.9280  -10.1500   30.4230 H   0  0  0  0  0  0  0  0  0  0  0  0
  -17.2530  -13.2910   30.6120 C   0  0  0  0  0  0  0  0  0  0  0  0
  -16.6480  -14.0750   31.0170 H   0  0  0  0  0  0  0  0  0  0  0  0
  -17.7000  -13.4050   29.6460 H   0  0  0  0  0  0  0  0  0  0  0  0
  -17.0950  -14.1890   30.0510 H   0  0  0  0  0  0  0  0  0  0  0  0
  -17.9140  -14.3970   34.5230 O   0  0  0  0  0  0  0  0  0  0  0  0
  -18.2230  -15.3560   35.6330 C   0  0  0  0  0  0  0  0  0  0  0  0
  -18.2680  -16.4070   35.4350 H   0  0  0  0  0  0  0  0  0  0  0  0
  -18.4430  -16.0420   36.4250 H   0  0  0  0  0  0  0  0  0  0  0  0
  -18.4670  -14.8450   37.0210 C   0  0  0  0  0  0  0  0  0  0  0  0
  -19.5510  -13.8390   37.2700 C   0  0  0  0  0  0  0  0  0  0  0  0
  -19.7950  -13.3270   38.6590 C   0  0  0  0  0  0  0  0  0  0  0  0
  -18.9550  -13.8210   39.7990 C   0  0  0  0  0  0  0  0  0  0  0  0
  -17.8700  -14.8270   39.5510 C   0  0  0  0  0  0  0  0  0  0  0  0
  -17.6260  -15.3390   38.1610 C   0  0  0  0  0  0  0  0  0  0  0  0
  -20.1290  -13.4990   36.4860 H   0  0  0  0  0  0  0  0  0  0  0  0
  -20.5410  -12.6350   38.8300 H   0  0  0  0  0  0  0  0  0  0  0  0
  -19.1230  -13.4690   40.7550 H   0  0  0  0  0  0  0  0  0  0  0  0
  -17.2920  -15.1670   40.3340 H   0  0  0  0  0  0  0  0  0  0  0  0
  -16.5420  -16.3450   37.9120 C   0  0  0  0  0  0  0  0  0  0  0  0
  -15.4570  -17.3520   37.6630 F   0  0  0  0  0  0  0  0  0  0  0  0
  -17.5290  -17.4570   38.1090 F   0  0  0  0  0  0  0  0  0  0  0  0
  -15.5550  -15.2330   37.7160 F   0  0  0  0  0  0  0  0  0  0  0  0
  1 12  1  0
  1  2  2  0
  2  6  1  0
  3  2  1  0
  3 40  1  0
  4  3  2  0
  5  4  1  0
  5  1  1  0
  7 15  1  0
  7 19  1  0
  8  7  2  0
  9 13  2  0
  9  8  1  0
 10  9  1  0
 11 10  2  0
 11 12  1  0
 12 13  1  0
 13 14  1  0
 14 18  1  0
 14 15  2  0
 15 24  1  0
 16  8  1  0
 17 11  1  0
 20 19  1  0
 20 22  1  0
 21 20  1  0
 23 20  1  0
 24 25  1  0
 25 28  1  0
 25 26  1  0
 27 25  1  0
 29  4  1  0
 29 30  2  0
 31 29  1  0
 32 34  1  0
 32 31  1  0
 33 32  1  0
 35 32  1  0
 36 37  1  0
 36 31  1  0
 38 36  1  0
 39 36  1  0
 40 41  1  0
 41 43  1  0
 41 44  1  0
 42 41  1  0
 44 45  2  0
 44 49  1  0
 45 46  1  0
 46 51  1  0
 46 47  2  0
 47 52  1  0
 48 47  1  0
 48 53  1  0
 49 48  2  0
 50 45  1  0
 54 56  1  0
 54 49  1  0
 55 54  1  0
 57 54  1  0
M  END
>  <minimizedAffinity>  (131) 
-9.21177959

$$$$

     RDKit          3D

 34 34  0  0  0  0  0  0  0  0999 V2000
  -14.3320  -15.2600   34.4670 C   0  0  0  0  0  3  0  0  0  0  0  0
  -15.8210  -15.2430   34.6450 N   0  0  0  0  0  0  0  0  0  0  0  0
  -16.4260  -15.6770   35.9470 C   0  0  0  0  0  0  0  0  0  0  0  0
  -15.5420  -16.1280   37.0720 C   0  0  0  0  0  0  0  0  0  0  0  0
  -14.0530  -16.1460   36.8940 C   0  0  0  0  0  0  0  0  0  0  0  0
  -13.4480  -15.7120   35.5920 C   0  0  0  0  0  0  0  0  0  0  0  0
  -11.9570  -15.8350   35.7090 N   0  0  0  0  0  0  0  0  0  0  0  0
  -11.6410  -16.3450   37.0840 C   0  0  0  0  0  0  0  0  0  0  0  0
  -12.9360  -16.5380   37.8170 N   0  0  0  0  0  0  0  0  0  0  0  0
  -17.4510  -15.6640   36.0700 H   0  0  0  0  0  0  0  0  0  0  0  0
  -15.9580  -16.4270   37.9680 H   0  0  0  0  0  0  0  0  0  0  0  0
  -10.2710  -16.6160   37.6300 C   0  0  0  0  0  0  0  0  0  0  0  0
   -9.8950  -16.6680   39.0820 N   0  0  0  0  0  0  0  0  0  0  0  0
   -8.4270  -16.9670   39.1700 O   0  0  0  0  0  0  0  0  0  0  0  0
   -7.8960  -17.1000   37.7730 N   0  0  0  0  0  0  0  0  0  0  0  0
   -9.0360  -16.8830   36.8210 C   0  0  0  0  0  0  0  0  0  0  0  0
   -8.9540  -16.9260   35.3250 N   0  0  0  0  0  0  0  0  0  0  0  0
   -9.7620  -16.7700   34.7830 H   0  0  0  0  0  0  0  0  0  0  0  0
   -8.0940  -17.1090   34.8830 H   0  0  0  0  0  0  0  0  0  0  0  0
  -13.0880  -17.0340   39.2230 C   0  0  0  0  0  0  0  0  0  0  0  0
  -13.0930  -18.0850   39.4220 H   0  0  0  0  0  0  0  0  0  0  0  0
  -13.1970  -17.3880   40.2270 H   0  0  0  0  0  0  0  0  0  0  0  0
  -13.2340  -16.0570   40.3520 C   0  0  0  0  0  0  0  0  0  0  0  0
  -13.3430  -16.4110   41.3550 H   0  0  0  0  0  0  0  0  0  0  0  0
  -13.2290  -15.0050   40.1530 H   0  0  0  0  0  0  0  0  0  0  0  0
  -13.3380  -15.3600   41.1570 H   0  0  0  0  0  0  0  0  0  0  0  0
  -13.7270  -14.8260   33.1650 O   0  0  0  0  0 15  0  0  0  0  0  0
  -13.7960  -13.3870   32.7490 C   0  0  0  0  0  3  0  0  0  0  0  0
  -13.2600  -12.6440   33.3020 H   0  0  0  0  0  0  0  0  0  0  0  0
  -13.2110  -13.6710   33.5990 H   0  0  0  0  0  0  0  0  0  0  0  0
  -14.6150  -12.9900   31.5570 C   0  0  0  0  0  0  0  0  0  0  0  0
  -14.6650  -11.9620   31.2600 H   0  0  0  0  0  0  0  0  0  0  0  0
  -15.1510  -13.7330   31.0040 H   0  0  0  0  0  0  0  0  0  0  0  0
  -15.2000  -12.7060   30.7070 H   0  0  0  0  0  0  0  0  0  0  0  0
  1  2  2  0
  1  6  1  0
  2  3  1  0
  3 10  1  0
  3  4  2  0
  4 11  1  0
  5  4  1  0
  5  9  1  0
  6  7  1  0
  6  5  2  0
  7  8  2  0
  8 12  1  0
  8  9  1  0
  9 20  1  0
 12 13  2  0
 13 14  1  0
 15 14  1  0
 16 12  1  0
 16 15  2  0
 17 16  1  0
 18 17  1  0
 19 17  1  0
 20 21  1  0
 20 22  1  0
 20 23  1  0
 23 26  1  0
 23 24  1  0
 25 23  1  0
 28 29  1  0
 28 30  1  0
 31 28  1  0
 32 31  1  0
 33 31  1  0
 34 31  1  0
M  END
>  <minimizedAffinity>  (132) 
-8.63902283

$$$$

     RDKit          3D

 47 46  0  0  0  0  0  0  0  0999 V2000
  -17.6610  -16.6340   38.8180 C   0  0  0  0  0  0  0  0  0  0  0  0
  -16.1990  -16.4650   38.5300 C   0  0  0  0  0  1  0  0  0  0  0  0
  -15.1810  -17.1830   39.3650 C   0  0  0  0  0  3  0  0  0  0  0  0
  -15.6270  -18.0710   40.4900 C   0  0  0  0  0  3  0  0  0  0  0  0
  -17.0890  -18.2400   40.7780 C   0  0  0  0  0  1  0  0  0  0  0  0
  -17.5340  -19.1280   41.9020 O   0  0  0  0  0 15  0  0  0  0  0  0
  -18.1050  -17.5210   39.9420 N   0  0  0  0  0  4  0  0  0  0  0  0
  -14.8640  -16.5500   38.5630 H   0  0  0  0  0  0  0  0  0  0  0  0
  -14.9010  -18.5840   41.0860 H   0  0  0  0  0  0  0  0  0  0  0  0
  -15.9440  -18.7040   41.2910 H   0  0  0  0  0  0  0  0  0  0  0  0
  -19.0650  -17.6320   40.1310 H   0  0  0  0  0  0  0  0  0  0  0  0
  -13.7190  -17.0150   39.0770 C   0  0  0  0  0  0  0  0  0  0  0  0
  -13.1370  -17.5570   37.8050 C   0  0  0  0  0  0  0  0  0  0  0  0
  -11.6750  -17.3880   37.5170 C   0  0  0  0  0  0  0  0  0  0  0  0
  -10.7940  -16.6770   38.5010 C   0  0  0  0  0  0  0  0  0  0  0  0
  -11.3760  -16.1340   39.7730 C   0  0  0  0  0  0  0  0  0  0  0  0
  -12.8380  -16.3030   40.0610 C   0  0  0  0  0  0  0  0  0  0  0  0
  -13.7440  -18.0470   37.1280 H   0  0  0  0  0  0  0  0  0  0  0  0
  -11.2750  -17.7610   36.6420 H   0  0  0  0  0  0  0  0  0  0  0  0
  -10.7690  -15.6450   40.4500 H   0  0  0  0  0  0  0  0  0  0  0  0
  -13.2380  -15.9300   40.9360 H   0  0  0  0  0  0  0  0  0  0  0  0
   -9.3320  -16.5080   38.2130 C   0  0  0  0  0  0  0  0  0  0  0  0
   -7.8690  -16.3390   37.9250 F   0  0  0  0  0  0  0  0  0  0  0  0
   -9.4440  -17.4770   37.0740 F   0  0  0  0  0  0  0  0  0  0  0  0
   -9.2190  -15.5390   39.3520 F   0  0  0  0  0  0  0  0  0  0  0  0
  -18.6780  -15.9150   37.9810 C   0  0  0  0  0  0  0  0  0  0  0  0
  -18.3600  -15.2820   37.1790 H   0  0  0  0  0  0  0  0  0  0  0  0
  -19.7210  -16.0360   38.1870 H   0  0  0  0  0  0  0  0  0  0  0  0
  -19.4030  -15.4020   37.3850 H   0  0  0  0  0  0  0  0  0  0  0  0
  -15.7530  -15.5770   37.4050 C   0  0  0  0  0  2  0  0  0  0  0  0
  -14.9850  -14.3220   37.6990 O   0  0  0  0  0  1  0  0  0  0  0  0
  -16.0760  -15.9440   35.9870 N   0  0  0  0  0  0  0  0  0  0  0  0
  -16.5800  -16.7670   35.7930 H   0  0  0  0  0  0  0  0  0  0  0  0
  -15.6300  -15.0560   34.8630 C   0  0  0  0  0  0  0  0  0  0  0  0
  -14.1910  -15.0430   34.4430 C   0  0  0  0  0  0  0  0  0  0  0  0
  -13.7450  -14.1560   33.3190 C   0  0  0  0  0  0  0  0  0  0  0  0
  -12.3050  -14.1430   32.8980 Cl  0  0  0  0  0  0  0  0  0  0  0  0
  -14.7400  -13.2810   32.6150 C   0  0  0  0  0  0  0  0  0  0  0  0
  -14.5960  -12.3090   31.4800 N   0  0  0  0  0  0  0  0  0  0  0  0
  -15.9480  -11.7220   31.2000 N   0  0  0  0  0  0  0  0  0  0  0  0
  -16.9260  -12.3300   32.1600 C   0  0  0  0  0  0  0  0  0  0  0  0
  -16.1790  -13.2940   33.0340 C   0  0  0  0  0  0  0  0  0  0  0  0
  -16.6250  -14.1820   34.1590 C   0  0  0  0  0  0  0  0  0  0  0  0
  -13.5060  -15.6450   34.9270 H   0  0  0  0  0  0  0  0  0  0  0  0
  -13.7620  -12.0950   31.0040 H   0  0  0  0  0  0  0  0  0  0  0  0
  -17.9360  -12.1220   32.2100 H   0  0  0  0  0  0  0  0  0  0  0  0
  -17.6150  -14.1910   34.4470 H   0  0  0  0  0  0  0  0  0  0  0  0
  1  7  2  0
  2  1  1  0
  3  4  1  0
  4  9  1  0
  4 10  1  0
  7 11  1  0
  7  5  1  0
  8  3  1  0
 12  3  1  0
 12 17  1  0
 13 12  2  0
 14 13  1  0
 14 15  2  0
 15 16  1  0
 16 17  2  0
 16 20  1  0
 17 21  1  0
 18 13  1  0
 19 14  1  0
 22 15  1  0
 22 25  1  0
 23 22  1  0
 24 22  1  0
 26 28  1  0
 26  1  1  0
 27 26  1  0
 29 26  1  0
 30 31  1  0
 32 30  1  0
 33 32  1  0
 34 32  1  0
 35 34  1  0
 35 44  1  0
 36 35  2  0
 37 36  1  0
 38 42  2  0
 38 36  1  0
 39 38  1  0
 40 39  1  0
 40 41  2  0
 41 46  1  0
 41 42  1  0
 42 43  1  0
 43 47  1  0
 43 34  2  0
 45 39  1  0
M  END
>  <minimizedAffinity>  (133) 
-9.86780357

$$$$

     RDKit          3D

 73 73  0  0  1  0  0  0  0  0999 V2000
  -18.8010  -11.3270   34.9210 C   0  0  0  0  0  0  0  0  0  0  0  0
  -19.7020  -10.9190   33.7940 C   0  0  0  0  0  0  0  0  0  0  0  0
  -19.3480  -11.2800   32.3820 C   0  0  0  0  0  0  0  0  0  0  0  0
  -18.0930  -12.0500   32.0970 C   0  0  0  0  0  0  0  0  0  0  0  0
  -17.7390  -12.4110   30.6850 N   0  0  0  0  0  0  0  0  0  0  0  0
  -16.4830  -13.1810   30.4000 C   0  0  0  0  0  0  0  0  0  0  0  0
  -15.5820  -13.5890   31.5270 N   0  0  0  0  0  0  0  0  0  0  0  0
  -15.9360  -13.2280   32.9400 C   0  0  0  0  0  0  0  0  0  0  0  0
  -15.0350  -13.6370   34.0670 N   0  0  0  0  0  0  0  0  0  0  0  0
  -17.1920  -12.4580   33.2240 C   0  0  0  0  0  0  0  0  0  0  0  0
  -17.5460  -12.0970   34.6370 C   0  0  0  0  0  0  0  0  0  0  0  0
  -20.5660  -10.3890   33.9900 H   0  0  0  0  0  0  0  0  0  0  0  0
  -19.9680  -10.9980   31.6060 H   0  0  0  0  0  0  0  0  0  0  0  0
  -16.2400  -13.4290   29.4280 H   0  0  0  0  0  0  0  0  0  0  0  0
  -15.2670  -13.4000   34.9940 H   0  0  0  0  0  0  0  0  0  0  0  0
  -16.9260  -12.3780   35.4120 H   0  0  0  0  0  0  0  0  0  0  0  0
  -13.7800  -14.4070   33.7820 C   0  0  0  0  0  0  0  0  0  0  0  0
  -13.8130  -15.9060   33.7380 C   0  0  0  0  0  0  0  0  0  0  0  0
  -12.5570  -16.6760   33.4530 C   0  0  0  0  0  0  0  0  0  0  0  0
  -11.2690  -15.9470   33.2120 C   0  0  0  0  0  0  0  0  0  0  0  0
  -11.2360  -14.4480   33.2560 C   0  0  0  0  0  0  0  0  0  0  0  0
   -9.9470  -13.7190   33.0160 Cl  0  0  0  0  0  0  0  0  0  0  0  0
  -12.4910  -13.6780   33.5410 C   0  0  0  0  0  0  0  0  0  0  0  0
  -14.7000  -16.4080   33.9030 H   0  0  0  0  0  0  0  0  0  0  0  0
  -12.5800  -17.7070   33.4230 H   0  0  0  0  0  0  0  0  0  0  0  0
  -12.4680  -12.6470   33.5720 H   0  0  0  0  0  0  0  0  0  0  0  0
  -10.0130  -16.7170   32.9270 O   0  0  0  0  0  0  0  0  0  0  0  0
   -9.5280  -17.7470   33.9030 C   0  0  0  0  0  0  0  0  0  0  0  0
   -9.2460  -18.7200   33.5580 H   0  0  0  0  0  0  0  0  0  0  0  0
   -9.1810  -18.4830   34.5990 H   0  0  0  0  0  0  0  0  0  0  0  0
   -9.4380  -17.4140   35.3630 C   0  0  0  0  0  0  0  0  0  0  0  0
   -9.9730  -16.1070   35.8680 C   0  0  0  0  0  0  0  0  0  0  0  0
   -9.8830  -15.7740   37.3280 C   0  0  0  0  0  0  0  0  0  0  0  0
   -9.2580  -16.7480   38.2820 C   0  0  0  0  0  0  0  0  0  0  0  0
   -8.7230  -18.0550   37.7770 C   0  0  0  0  0  0  0  0  0  0  0  0
   -8.0970  -19.0290   38.7310 F   0  0  0  0  0  0  0  0  0  0  0  0
   -8.8130  -18.3880   36.3170 C   0  0  0  0  0  0  0  0  0  0  0  0
  -10.4030  -15.4370   35.2120 H   0  0  0  0  0  0  0  0  0  0  0  0
  -10.2520  -14.8750   37.6760 H   0  0  0  0  0  0  0  0  0  0  0  0
   -9.1960  -16.5190   39.2870 H   0  0  0  0  0  0  0  0  0  0  0  0
   -8.4440  -19.2870   35.9690 H   0  0  0  0  0  0  0  0  0  0  0  0
  -19.6070  -11.1260   38.7130 C   0  0  0  0  0  1  0  0  0  0  0  0
  -19.7950   -9.6960   38.3000 C   0  0  0  0  0  3  0  0  0  0  0  0
  -19.5160   -9.5970   36.8290 C   0  0  0  0  0  0  0  0  0  0  0  0
  -19.1550  -10.9660   36.3340 C   0  0  0  0  0  3  0  0  0  0  0  0
  -19.2120  -11.9110   37.4980 O   0  0  0  0  0  0  0  0  0  0  0  0
  -20.0680   -8.9170   38.9190 H   0  0  0  0  0  0  0  0  0  0  0  0
  -19.5640   -8.7380   36.2590 H   0  0  0  0  0  0  0  0  0  0  0  0
  -19.7830  -11.6740   40.0980 C   0  0  0  0  0  2  0  0  0  0  0  0
  -20.3430  -11.1230   40.8240 H   0  0  0  0  0  0  0  0  0  0  0  0
  -20.2180  -10.7320   39.8360 H   0  0  0  0  0  0  0  0  0  0  0  0
  -19.1730  -12.9940   40.4650 N   0  0  0  0  0  1  0  0  0  0  0  0
  -18.5660  -13.0660   41.2830 H   0  0  0  0  0  0  0  0  0  0  0  0
  -19.4540  -14.2080   39.6320 C   0  0  0  0  0  2  0  0  0  0  0  0
  -20.1210  -14.1420   38.7970 H   0  0  0  0  0  0  0  0  0  0  0  0
  -19.9190  -13.2750   39.3920 H   0  0  0  0  0  0  0  0  0  0  0  0
  -18.8020  -15.5170   39.9680 C   0  0  0  0  0  3  0  0  0  0  0  0
  -19.2770  -16.1920   40.6490 H   0  0  0  0  0  0  0  0  0  0  0  0
  -19.7420  -15.2590   40.4090 H   0  0  0  0  0  0  0  0  0  0  0  0
  -18.1880  -16.7720   38.3720 O   0  0  0  0  0  0  0  0  0  0  0  0
  -17.4840  -15.8790   39.3490 S   0  0  1  0  0  0  0  0  0  0  0  0
  -16.7800  -14.9860   40.3270 O   0  0  0  0  0  0  0  0  0  0  0  0
  -16.1670  -16.2410   38.7310 C   0  0  0  0  0  0  0  0  0  0  0  0
  -15.3970  -15.2150   37.9520 C   0  0  0  0  0  0  0  0  0  0  0  0
  -14.0780  -15.5780   37.3340 C   0  0  0  0  0  0  0  0  0  0  0  0
  -13.5310  -16.9650   37.4950 C   0  0  0  0  0  0  0  0  0  0  0  0
  -14.3010  -17.9900   38.2740 C   0  0  0  0  0  0  0  0  0  0  0  0
  -15.6190  -17.6280   38.8920 C   0  0  0  0  0  0  0  0  0  0  0  0
  -15.7740  -14.2620   37.8420 H   0  0  0  0  0  0  0  0  0  0  0  0
  -13.5500  -14.8720   36.7980 H   0  0  0  0  0  0  0  0  0  0  0  0
  -12.6240  -17.2140   37.0690 H   0  0  0  0  0  0  0  0  0  0  0  0
  -13.9240  -18.9440   38.3840 H   0  0  0  0  0  0  0  0  0  0  0  0
  -16.1480  -18.3330   39.4270 H   0  0  0  0  0  0  0  0  0  0  0  0
  1 45  1  0
  2 12  1  0
  2  1  2  0
  3  2  1  0
  4  3  2  0
  4 10  1  0
  5  4  1  0
  6  5  2  0
  6  7  1  0
  7  8  2  0
  8 10  1  0
  8  9  1  0
  9 15  1  0
 10 11  2  0
 11  1  1  0
 11 16  1  0
 13  3  1  0
 14  6  1  0
 17  9  1  0
 18 17  1  0
 18 24  1  0
 19 18  2  0
 20 21  2  0
 20 19  1  0
 21 23  1  0
 22 21  1  0
 23 26  1  0
 23 17  2  0
 25 19  1  0
 27 20  1  0
 27 28  1  0
 28 30  1  0
 28 31  1  0
 29 28  1  0
 31 32  2  0
 31 37  1  0
 32 33  1  0
 33 39  1  0
 33 34  2  0
 34 40  1  0
 35 34  1  0
 35 36  1  0
 37 35  2  0
 38 32  1  0
 41 37  1  0
 43 47  1  0
 44 43  2  0
 45 44  1  0
 45 46  1  0
 46 42  1  0
 48 44  1  0
 49 50  1  0
 51 49  1  0
 52 53  1  0
 55 54  1  0
 56 54  1  0
 57 59  1  0
 57 58  1  0
 60 61  2  0
 61 57  1  0
 61 62  2  0
 63 68  1  0
 63 61  1  0
 64 63  2  0
 65 66  2  0
 65 64  1  0
 66 67  1  0
 67 72  1  0
 67 68  2  0
 68 73  1  0
 69 64  1  0
 70 65  1  0
 71 66  1  0
M  END
>  <minimizedAffinity>  (134) 
-6.78464603

$$$$

     RDKit          3D

 65 62  0  0  0  0  0  0  0  0999 V2000
  -16.4090  -14.5650   35.4150 N   0  0  0  0  0  0  0  0  0  0  0  0
  -17.3330  -14.1650   34.3030 C   0  0  0  0  0  0  0  0  0  0  0  0
  -16.4990  -13.8290   33.1030 N   0  0  0  0  0  0  0  0  0  0  0  0
  -15.0570  -14.0220   33.4730 C   0  0  0  0  0  0  0  0  0  0  0  0
  -13.7890  -13.8420   32.6930 C   0  0  0  0  0  0  0  0  0  0  0  0
  -12.4650  -14.1170   33.3410 C   0  0  0  0  0  0  0  0  0  0  0  0
  -12.4090  -14.5720   34.7700 C   0  0  0  0  0  0  0  0  0  0  0  0
  -13.6780  -14.7520   35.5490 C   0  0  0  0  0  0  0  0  0  0  0  0
  -15.0020  -14.4770   34.9010 C   0  0  0  0  0  0  0  0  0  0  0  0
  -18.3630  -14.1270   34.3560 H   0  0  0  0  0  0  0  0  0  0  0  0
  -13.8270  -13.5290   31.7100 H   0  0  0  0  0  0  0  0  0  0  0  0
  -11.5910  -13.9930   32.8050 H   0  0  0  0  0  0  0  0  0  0  0  0
  -13.6390  -15.0650   36.5320 H   0  0  0  0  0  0  0  0  0  0  0  0
  -16.8510  -15.2680   39.2060 C   0  0  0  0  0  0  0  0  0  0  0  0
  -16.0920  -14.6550   38.0670 C   0  0  0  0  0  0  0  0  0  0  0  0
  -16.8180  -14.9810   36.7960 C   0  0  0  0  0  0  0  0  0  0  0  0
  -18.0270  -15.7960   37.1500 S   0  0  0  0  0  0  0  0  0  0  0  0
  -18.0470  -15.9740   38.6390 C   0  0  0  0  0  0  0  0  0  0  0  0
  -15.2220  -14.1050   38.1450 H   0  0  0  0  0  0  0  0  0  0  0  0
  -19.0810  -16.7250   39.4230 C   0  0  0  0  0  0  0  0  0  0  0  0
  -19.7470  -16.0770   40.6010 N   0  0  0  0  0  0  0  0  0  0  0  0
  -19.4510  -18.1250   39.0290 O   0  0  0  0  0  0  0  0  0  0  0  0
  -20.4260  -16.5710   41.1160 H   0  0  0  0  0  0  0  0  0  0  0  0
  -19.5040  -15.1590   40.8600 H   0  0  0  0  0  0  0  0  0  0  0  0
  -16.4790  -15.1910   40.6570 O   0  0  0  0  0  1  0  0  0  0  0  0
  -15.4680  -16.1440   41.2240 C   0  0  0  0  0  3  0  0  0  0  0  0
  -16.5130  -16.3290   41.3600 H   0  0  0  0  0  0  0  0  0  0  0  0
  -14.0040  -15.8820   41.0340 C   0  0  0  0  0  0  0  0  0  0  0  0
  -13.2710  -14.9820   41.9850 C   0  0  0  0  0  0  0  0  0  0  0  0
  -11.8080  -14.7210   41.7940 C   0  0  0  0  0  0  0  0  0  0  0  0
  -11.0740  -15.3610   40.6520 C   0  0  0  0  0  0  0  0  0  0  0  0
  -11.8050  -16.2620   39.7020 C   0  0  0  0  0  0  0  0  0  0  0  0
  -13.2700  -16.5220   39.8930 C   0  0  0  0  0  0  0  0  0  0  0  0
  -14.0010  -17.4230   38.9420 Cl  0  0  0  0  0  0  0  0  0  0  0  0
  -13.7770  -14.5420   42.7700 H   0  0  0  0  0  0  0  0  0  0  0  0
  -11.3030  -14.1020   42.4480 H   0  0  0  0  0  0  0  0  0  0  0  0
  -10.0660  -15.1820   40.5220 H   0  0  0  0  0  0  0  0  0  0  0  0
  -11.3010  -16.7020   38.9160 H   0  0  0  0  0  0  0  0  0  0  0  0
  -15.9220  -17.3560   41.9810 C   0  0  0  0  0  0  0  0  0  0  0  0
  -15.2010  -18.0350   42.3860 H   0  0  0  0  0  0  0  0  0  0  0  0
  -16.9670  -17.5410   42.1160 H   0  0  0  0  0  0  0  0  0  0  0  0
  -16.2460  -18.2210   42.5210 H   0  0  0  0  0  0  0  0  0  0  0  0
  -11.0850  -14.8470   35.4180 O   0  0  0  0  0  0  0  0  0  0  0  0
  -10.5250  -16.2390   35.4190 C   0  0  0  0  0  0  0  0  0  0  0  0
  -10.8430  -16.9440   34.6800 H   0  0  0  0  0  0  0  0  0  0  0  0
  -10.1260  -17.2320   35.4210 H   0  0  0  0  0  0  0  0  0  0  0  0
   -9.5200  -16.6420   36.4570 C   0  0  0  0  0  2  0  0  0  0  0  0
   -8.7680  -15.5920   37.2200 C   0  0  0  0  0  2  0  0  0  0  0  0
   -7.7630  -15.9960   38.2580 C   0  0  0  0  0  2  0  0  0  0  0  0
   -7.5090  -17.4480   38.5330 N   0  0  0  0  0  1  0  0  0  0  0  0
   -8.2610  -18.4980   37.7690 C   0  0  0  0  0  2  0  0  0  0  0  0
   -9.2670  -18.0950   36.7320 C   0  0  0  0  0  2  0  0  0  0  0  0
   -8.8030  -16.9300   37.1980 H   0  0  0  0  0  0  0  0  0  0  0  0
   -8.9480  -14.5560   37.0250 H   0  0  0  0  0  0  0  0  0  0  0  0
   -8.2310  -14.8440   37.7650 H   0  0  0  0  0  0  0  0  0  0  0  0
   -7.2260  -15.2470   38.8030 H   0  0  0  0  0  0  0  0  0  0  0  0
   -7.0450  -16.2830   38.9990 H   0  0  0  0  0  0  0  0  0  0  0  0
   -8.0810  -19.5340   37.9650 H   0  0  0  0  0  0  0  0  0  0  0  0
   -8.7970  -19.2470   37.2250 H   0  0  0  0  0  0  0  0  0  0  0  0
   -9.8030  -18.8430   36.1880 H   0  0  0  0  0  0  0  0  0  0  0  0
   -9.9830  -17.8070   35.9920 H   0  0  0  0  0  0  0  0  0  0  0  0
   -6.5040  -17.8510   39.5700 C   0  0  0  0  0  0  0  0  0  0  0  0
   -5.9670  -17.1030   40.1150 H   0  0  0  0  0  0  0  0  0  0  0  0
   -6.3240  -18.8880   39.7660 H   0  0  0  0  0  0  0  0  0  0  0  0
   -5.7870  -18.1390   40.3110 H   0  0  0  0  0  0  0  0  0  0  0  0
  1 16  1  0
  2 10  1  0
  2  1  1  0
  3  4  1  0
  3  2  2  0
  4  9  1  0
  5  6  1  0
  5  4  2  0
  6  7  2  0
  7 43  1  0
  7  8  1  0
  8 13  1  0
  9  1  1  0
  9  8  2  0
 11  5  1  0
 12  6  1  0
 14 25  1  0
 15 19  1  0
 15 14  1  0
 16 17  1  0
 16 15  2  0
 17 18  1  0
 18 14  2  0
 18 20  1  0
 20 21  1  0
 21 24  1  0
 21 23  1  0
 22 20  2  0
 26 27  1  0
 26 39  1  0
 28 26  1  0
 28 29  1  0
 29 35  1  0
 30 29  2  0
 30 36  1  0
 31 30  1  0
 32 33  1  0
 32 31  2  0
 33 28  2  0
 34 33  1  0
 37 31  1  0
 38 32  1  0
 39 41  1  0
 39 40  1  0
 39 42  1  0
 43 44  1  0
 44 46  1  0
 44 47  1  0
 45 44  1  0
 47 53  1  0
 48 55  1  0
 49 56  1  0
 49 57  1  0
 50 62  1  0
 51 58  1  0
 54 48  1  0
 59 51  1  0
 60 52  1  0
 61 52  1  0
 62 64  1  0
 62 63  1  0
 62 65  1  0
M  END
>  <minimizedAffinity>  (135) 
-11.0995712

$$$$

     RDKit          3D

 70 65  0  0  1  0  0  0  0  0999 V2000
  -18.9300  -13.4350   33.3100 C   0  0  0  0  0  3  0  0  0  0  0  0
  -19.2570  -14.8680   33.6040 C   0  0  0  0  0  0  0  0  0  0  0  0
  -19.5450  -15.2980   35.0130 C   0  0  0  0  0  0  0  0  0  0  0  0
  -19.5060  -14.2930   36.1260 C   0  0  0  0  0  0  0  0  0  0  0  0
  -19.1790  -12.8590   35.8310 C   0  0  0  0  0  0  0  0  0  0  0  0
  -18.8910  -12.4290   34.4230 C   0  0  0  0  0  0  0  0  0  0  0  0
  -19.2840  -15.5590   32.8380 H   0  0  0  0  0  0  0  0  0  0  0  0
  -19.7700  -16.2840   35.2150 H   0  0  0  0  0  0  0  0  0  0  0  0
  -18.6660  -11.4430   34.2210 H   0  0  0  0  0  0  0  0  0  0  0  0
  -18.0670  -12.1460   29.0850 N   0  0  0  0  0 15  0  0  0  0  0  0
  -19.4750  -12.1350   29.6000 C   0  0  0  0  0  2  0  0  0  0  0  0
  -19.7630  -12.5640   31.0080 C   0  0  0  0  0  2  0  0  0  0  0  0
  -18.6420  -13.0050   31.9010 C   0  0  0  0  0  1  0  0  0  0  0  0
  -17.2340  -13.0170   31.3870 C   0  0  0  0  0  2  0  0  0  0  0  0
  -16.9450  -12.5880   29.9790 C   0  0  0  0  0  2  0  0  0  0  0  0
  -20.2750  -11.8200   28.9630 H   0  0  0  0  0  0  0  0  0  0  0  0
  -20.4810  -12.1260   29.9660 H   0  0  0  0  0  0  0  0  0  0  0  0
  -20.7690  -12.5550   31.3740 H   0  0  0  0  0  0  0  0  0  0  0  0
  -19.9690  -12.8700   32.0120 H   0  0  0  0  0  0  0  0  0  0  0  0
  -17.8430  -13.3200   32.5390 H   0  0  0  0  0  0  0  0  0  0  0  0
  -16.4340  -13.3320   32.0250 H   0  0  0  0  0  0  0  0  0  0  0  0
  -16.2280  -13.0250   31.0200 H   0  0  0  0  0  0  0  0  0  0  0  0
  -15.9400  -12.5960   29.6120 H   0  0  0  0  0  0  0  0  0  0  0  0
  -16.7390  -12.2810   28.9750 H   0  0  0  0  0  0  0  0  0  0  0  0
  -17.7780  -11.7170   27.6780 C   0  0  0  0  0  2  0  0  0  0  0  0
  -17.8740  -12.4180   26.8740 H   0  0  0  0  0  0  0  0  0  0  0  0
  -18.0800  -12.7240   27.8790 H   0  0  0  0  0  0  0  0  0  0  0  0
  -17.3560  -10.3060   27.3950 C   0  0  0  0  0  3  0  0  0  0  0  0
  -18.0890   -9.5280   27.3480 H   0  0  0  0  0  0  0  0  0  0  0  0
  -18.3900  -10.5350   27.5490 H   0  0  0  0  0  0  0  0  0  0  0  0
  -15.9070   -9.9850   27.1790 C   0  0  0  0  0  0  0  0  0  0  0  0
  -15.1740  -10.7640   27.2260 H   0  0  0  0  0  0  0  0  0  0  0  0
  -15.6060   -8.9790   26.9770 H   0  0  0  0  0  0  0  0  0  0  0  0
  -14.8720   -9.7570   27.0240 H   0  0  0  0  0  0  0  0  0  0  0  0
  -19.7940  -14.7220   37.5340 N   0  0  0  0  0  0  0  0  0  0  0  0
  -18.8390  -15.6300   38.2520 C   0  0  0  0  0  0  0  0  0  0  0  0
  -17.5970  -16.1080   37.5610 N   0  0  0  0  0  0  0  0  0  0  0  0
  -16.6420  -17.0150   38.2780 C   0  0  0  0  0  3  0  0  0  0  0  0
  -16.9300  -17.4450   39.6860 C   0  0  0  0  0  0  0  0  0  0  0  0
  -16.1800  -18.3270   40.6400 C   0  0  0  0  0  0  0  0  0  0  0  0
  -16.9590  -18.3930   41.9210 C   0  0  0  0  0  0  0  0  0  0  0  0
  -18.1900  -17.5530   41.7580 N   0  0  0  0  0  0  0  0  0  0  0  0
  -18.1720  -16.9670   40.3770 C   0  0  0  0  0  0  0  0  0  0  0  0
  -19.1270  -16.0590   39.6590 N   0  0  0  0  0  2  0  0  0  0  0  0
  -20.6100  -14.4080   37.9880 H   0  0  0  0  0  0  0  0  0  0  0  0
  -15.2850  -18.8040   40.4490 H   0  0  0  0  0  0  0  0  0  0  0  0
  -16.6940  -18.9240   42.7650 H   0  0  0  0  0  0  0  0  0  0  0  0
  -18.8880  -17.4110   42.4380 H   0  0  0  0  0  0  0  0  0  0  0  0
  -15.3990  -17.4940   37.5880 N   0  0  0  0  0  0  0  0  0  0  0  0
  -15.1170  -18.4320   37.6770 H   0  0  0  0  0  0  0  0  0  0  0  0
  -14.5860  -16.5410   36.7610 C   0  0  0  0  0  0  0  0  0  0  0  0
  -15.2210  -15.8200   35.6090 C   0  0  0  0  0  0  0  0  0  0  0  0
  -14.4080  -14.8680   34.7820 C   0  0  0  0  0  0  0  0  0  0  0  0
  -15.0420  -14.1470   33.6290 F   0  0  0  0  0  0  0  0  0  0  0  0
  -12.9630  -14.6370   35.1070 C   0  0  0  0  0  0  0  0  0  0  0  0
  -12.3290  -15.3590   36.2600 C   0  0  0  0  0  0  0  0  0  0  0  0
  -13.1410  -16.3110   37.0860 C   0  0  0  0  0  0  0  0  0  0  0  0
  -16.2160  -15.9790   35.3840 H   0  0  0  0  0  0  0  0  0  0  0  0
  -12.4040  -13.9820   34.5390 H   0  0  0  0  0  0  0  0  0  0  0  0
  -11.3340  -15.2000   36.4840 H   0  0  0  0  0  0  0  0  0  0  0  0
  -12.5070  -17.0320   38.2390 C   0  0  0  0  0  0  0  0  0  0  0  0
  -11.1690  -17.6870   38.0690 N   0  0  0  0  0  0  0  0  0  0  0  0
  -13.2120  -17.0980   39.5620 O   0  0  0  0  0  0  0  0  0  0  0  0
  -10.7530  -18.1610   38.8250 H   0  0  0  0  0  0  0  0  0  0  0  0
  -10.7070  -17.6440   37.2010 H   0  0  0  0  0  0  0  0  0  0  0  0
  -19.1400  -11.8550   36.9440 O   0  0  0  0  0  0  0  0  0  0  0  0
  -19.2360  -10.3900   36.6380 C   0  0  0  0  0  0  0  0  0  0  0  0
  -19.2080   -9.6730   37.4330 H   0  0  0  0  0  0  0  0  0  0  0  0
  -19.3330  -10.0600   35.6240 H   0  0  0  0  0  0  0  0  0  0  0  0
  -19.3050   -9.3440   36.4190 H   0  0  0  0  0  0  0  0  0  0  0  0
  1  2  2  0
  1  6  1  0
  2  3  1  0
  3  8  1  0
  3  4  2  0
  4 35  1  0
  5  4  1  0
  5 66  1  0
  6  5  2  0
  7  2  1  0
  9  6  1  0
 11 17  1  0
 12 18  1  0
 12 19  1  0
 13 20  1  0
 14 21  1  0
 16 11  1  0
 22 14  1  0
 23 15  1  0
 24 15  1  0
 25 27  1  0
 26 25  1  0
 28 30  1  0
 29 28  1  0
 31 32  1  0
 31 28  1  0
 33 31  1  0
 34 31  1  0
 35 45  1  0
 35 36  1  0
 36 44  1  0
 37 36  2  0
 37 38  1  0
 38 49  1  0
 38 39  1  0
 39 43  2  0
 39 40  1  0
 40 41  2  0
 41 47  1  0
 42 41  1  0
 42 48  1  0
 43 42  1  0
 44 43  1  0
 46 40  1  0
 49 50  1  0
 51 57  1  0
 51 49  1  0
 52 51  2  0
 53 55  2  0
 53 52  1  0
 54 53  1  0
 55 56  1  0
 56 60  1  0
 56 57  2  0
 57 61  1  0
 58 52  1  0
 59 55  1  0
 61 63  2  0
 62 61  1  0
 62 64  1  0
 65 62  1  0
 67 66  1  0
 67 68  1  0
 69 67  1  0
 70 67  1  0
M  END
>  <minimizedAffinity>  (136) 
-8.76062012

$$$$

     RDKit          3D

 46 49  0  0  0  0  0  0  0  0999 V2000
  -12.1430  -14.4890   33.6350 C   0  0  0  0  0  0  0  0  0  0  0  0
  -11.9600  -14.3050   35.1120 C   0  0  0  0  0  0  0  0  0  0  0  0
  -10.9260  -15.1070   35.8450 C   0  0  0  0  0  0  0  0  0  0  0  0
  -10.0750  -16.0920   35.1000 C   0  0  0  0  0  0  0  0  0  0  0  0
  -10.2580  -16.2760   33.6230 C   0  0  0  0  0  0  0  0  0  0  0  0
  -11.2920  -15.4740   32.8900 C   0  0  0  0  0  0  0  0  0  0  0  0
  -12.5460  -13.6270   35.6240 H   0  0  0  0  0  0  0  0  0  0  0  0
  -10.7990  -14.9800   36.8610 H   0  0  0  0  0  0  0  0  0  0  0  0
   -9.6730  -16.9540   33.1110 H   0  0  0  0  0  0  0  0  0  0  0  0
  -11.4190  -15.6010   31.8730 H   0  0  0  0  0  0  0  0  0  0  0  0
  -16.2810  -11.2810   30.7030 C   0  0  0  0  0  0  0  0  0  0  0  0
  -17.7230  -11.3710   31.1060 C   0  0  0  0  0  0  0  0  0  0  0  0
  -18.1310  -12.2620   32.2420 C   0  0  0  0  0  0  0  0  0  0  0  0
  -17.0960  -13.0640   32.9740 C   0  0  0  0  0  0  0  0  0  0  0  0
  -17.5040  -13.9550   34.1100 N   0  0  0  0  0  0  0  0  0  0  0  0
  -16.4700  -14.7570   34.8430 C   0  0  0  0  0  0  0  0  0  0  0  0
  -15.0280  -14.6670   34.4400 N   0  0  0  0  0  0  0  0  0  0  0  0
  -14.6200  -13.7760   33.3040 C   0  0  0  0  0  0  0  0  0  0  0  0
  -13.1780  -13.6870   32.9020 N   0  0  0  0  0  0  0  0  0  0  0  0
  -15.6540  -12.9740   32.5720 C   0  0  0  0  0  0  0  0  0  0  0  0
  -15.2460  -12.0830   31.4360 C   0  0  0  0  0  0  0  0  0  0  0  0
  -18.4350  -10.8190   30.6020 H   0  0  0  0  0  0  0  0  0  0  0  0
  -19.1230  -12.3230   32.5190 H   0  0  0  0  0  0  0  0  0  0  0  0
  -16.7500  -15.3700   35.6240 H   0  0  0  0  0  0  0  0  0  0  0  0
  -12.9100  -13.1020   32.1570 H   0  0  0  0  0  0  0  0  0  0  0  0
  -14.2540  -12.0220   31.1590 H   0  0  0  0  0  0  0  0  0  0  0  0
  -15.8730  -10.3900   29.5680 O   0  0  0  0  0  0  0  0  0  0  0  0
  -16.5860  -10.4790   28.2510 C   0  0  0  0  0  0  0  0  0  0  0  0
  -17.3860  -11.1780   28.1220 H   0  0  0  0  0  0  0  0  0  0  0  0
  -16.2960   -9.8430   27.4410 H   0  0  0  0  0  0  0  0  0  0  0  0
  -17.0960  -10.5420   27.3120 H   0  0  0  0  0  0  0  0  0  0  0  0
   -9.0400  -16.8940   35.8330 O   0  0  0  0  0  0  0  0  0  0  0  0
   -9.4430  -17.7600   36.9900 C   0  0  0  0  0  0  0  0  0  0  0  0
   -8.9890  -18.7190   37.1250 H   0  0  0  0  0  0  0  0  0  0  0  0
   -9.7310  -18.3770   37.8160 H   0  0  0  0  0  0  0  0  0  0  0  0
  -10.4840  -17.2800   37.9590 C   0  0  0  0  0  0  0  0  0  0  0  0
  -10.0890  -16.4040   39.1100 C   0  0  0  0  0  0  0  0  0  0  0  0
  -11.1290  -15.9240   40.0790 C   0  0  0  0  0  0  0  0  0  0  0  0
  -12.5640  -16.3210   39.8960 C   0  0  0  0  0  0  0  0  0  0  0  0
  -12.9590  -17.1980   38.7440 C   0  0  0  0  0  0  0  0  0  0  0  0
  -11.9180  -17.6770   37.7760 C   0  0  0  0  0  0  0  0  0  0  0  0
   -9.1020  -16.1300   39.2360 H   0  0  0  0  0  0  0  0  0  0  0  0
  -10.8570  -15.3210   40.8710 H   0  0  0  0  0  0  0  0  0  0  0  0
  -13.2800  -15.9910   40.5620 H   0  0  0  0  0  0  0  0  0  0  0  0
  -13.9460  -17.4710   38.6190 H   0  0  0  0  0  0  0  0  0  0  0  0
  -12.1900  -18.2800   36.9840 H   0  0  0  0  0  0  0  0  0  0  0  0
  1  2  1  0
  2  7  1  0
  2  3  2  0
  3  8  1  0
  4 32  1  0
  4  3  1  0
  5  4  2  0
  6  5  1  0
  6  1  2  0
  9  5  1  0
 10  6  1  0
 11 12  2  0
 11 21  1  0
 12 13  1  0
 13 23  1  0
 13 14  2  0
 14 15  1  0
 15 16  2  0
 16 24  1  0
 17 16  1  0
 18 17  2  0
 19 18  1  0
 19  1  1  0
 20 14  1  0
 20 18  1  0
 21 20  2  0
 22 12  1  0
 25 19  1  0
 26 21  1  0
 27 11  1  0
 28 27  1  0
 29 28  1  0
 30 28  1  0
 31 28  1  0
 32 33  1  0
 33 34  1  0
 33 35  1  0
 33 36  1  0
 36 37  1  0
 37 42  1  0
 37 38  2  0
 38 43  1  0
 39 38  1  0
 39 44  1  0
 40 39  2  0
 41 36  2  0
 41 40  1  0
 45 40  1  0
 46 41  1  0
M  END
>  <minimizedAffinity>  (137) 
-9.16838455

$$$$

     RDKit          3D

 61 65  0  0  0  0  0  0  0  0999 V2000
  -19.5520  -14.6200   35.3150 N   0  0  0  0  0  0  0  0  0  0  0  0
  -18.6380  -15.3040   36.2880 C   0  0  0  0  0  0  0  0  0  0  0  0
  -19.2050  -15.9850   37.4980 N   0  0  0  0  0  0  0  0  0  0  0  0
  -18.2900  -16.6700   38.4700 C   0  0  0  0  0  3  0  0  0  0  0  0
  -16.8090  -16.6730   38.2320 C   0  0  0  0  0  0  0  0  0  0  0  0
  -15.6690  -17.2620   39.0090 C   0  0  0  0  0  0  0  0  0  0  0  0
  -14.3980  -16.9450   38.2790 N   0  0  0  0  0  0  0  0  0  0  0  0
  -14.7530  -16.1600   37.0510 C   0  0  0  0  0  0  0  0  0  0  0  0
  -16.2430  -15.9930   37.0220 N   0  0  0  0  0  0  0  0  0  0  0  0
  -17.1570  -15.3080   36.0490 N   0  0  0  0  0  2  0  0  0  0  0  0
  -20.5240  -14.6180   35.4720 H   0  0  0  0  0  0  0  0  0  0  0  0
  -18.6800  -17.1380   39.3030 H   0  0  0  0  0  0  0  0  0  0  0  0
  -13.7860  -15.6350   36.0300 C   0  0  0  0  0  0  0  0  0  0  0  0
  -14.2420  -14.6330   35.0120 C   0  0  0  0  0  0  0  0  0  0  0  0
  -13.2760  -14.1080   33.9920 C   0  0  0  0  0  0  0  0  0  0  0  0
  -11.8540  -14.5860   33.9900 C   0  0  0  0  0  0  0  0  0  0  0  0
  -11.3980  -15.5880   35.0070 C   0  0  0  0  0  0  0  0  0  0  0  0
  -12.3650  -16.1130   36.0280 C   0  0  0  0  0  0  0  0  0  0  0  0
  -15.2200  -14.3030   35.0140 H   0  0  0  0  0  0  0  0  0  0  0  0
  -13.5890  -13.4170   33.2910 H   0  0  0  0  0  0  0  0  0  0  0  0
  -11.1890  -14.2250   33.2880 H   0  0  0  0  0  0  0  0  0  0  0  0
  -12.0510  -16.8030   36.7280 H   0  0  0  0  0  0  0  0  0  0  0  0
   -9.9770  -16.0670   35.0050 O   0  0  0  0  0  0  0  0  0  0  0  0
   -9.3670  -16.6120   36.2630 C   0  0  0  0  0  0  0  0  0  0  0  0
   -9.2520  -18.0940   36.4580 C   0  0  0  0  0  0  0  0  0  0  0  0
   -8.6420  -18.6400   37.7160 C   0  0  0  0  0  0  0  0  0  0  0  0
   -8.1480  -17.7020   38.7770 C   0  0  0  0  0  0  0  0  0  0  0  0
   -8.2630  -16.2190   38.5820 C   0  0  0  0  0  0  0  0  0  0  0  0
   -8.8730  -15.6750   37.3250 C   0  0  0  0  0  0  0  0  0  0  0  0
   -9.5910  -18.7400   35.7280 H   0  0  0  0  0  0  0  0  0  0  0  0
   -8.5620  -19.6600   37.8500 H   0  0  0  0  0  0  0  0  0  0  0  0
   -7.7280  -18.0780   39.6430 H   0  0  0  0  0  0  0  0  0  0  0  0
   -7.9240  -15.5750   39.3120 H   0  0  0  0  0  0  0  0  0  0  0  0
   -8.9530  -14.6540   37.1900 H   0  0  0  0  0  0  0  0  0  0  0  0
  -18.9220  -13.6180   31.5270 C   0  0  0  0  0  0  0  0  0  0  0  0
  -19.4880  -14.2990   32.7380 C   0  0  0  0  0  0  0  0  0  0  0  0
  -18.9860  -13.9390   34.1050 C   0  0  0  0  0  0  0  0  0  0  0  0
  -17.9170  -12.8990   34.2610 C   0  0  0  0  0  0  0  0  0  0  0  0
  -17.3500  -12.2180   33.0500 C   0  0  0  0  0  0  0  0  0  0  0  0
  -17.8530  -12.5780   31.6840 C   0  0  0  0  0  0  0  0  0  0  0  0
  -20.2240  -15.0150   32.6300 H   0  0  0  0  0  0  0  0  0  0  0  0
  -17.5710  -12.6510   35.2010 H   0  0  0  0  0  0  0  0  0  0  0  0
  -19.4240  -13.9780   30.1610 O   0  0  0  0  0  0  0  0  0  0  0  0
  -19.7950  -12.8970   29.1890 C   0  0  0  0  0  0  0  0  0  0  0  0
  -20.1530  -13.1530   28.2140 H   0  0  0  0  0  0  0  0  0  0  0  0
  -19.7010  -11.8680   29.4710 H   0  0  0  0  0  0  0  0  0  0  0  0
  -20.0590  -12.1250   28.4960 H   0  0  0  0  0  0  0  0  0  0  0  0
  -16.2810  -11.1770   33.2070 O   0  0  0  0  0  0  0  0  0  0  0  0
  -16.6580   -9.7440   33.4420 C   0  0  0  0  0  0  0  0  0  0  0  0
  -17.6890   -9.4650   33.4980 H   0  0  0  0  0  0  0  0  0  0  0  0
  -15.8950   -9.0020   33.5530 H   0  0  0  0  0  0  0  0  0  0  0  0
  -16.9270   -8.7220   33.6090 H   0  0  0  0  0  0  0  0  0  0  0  0
  -17.2860  -11.8970   30.4730 O   0  0  0  0  0  0  0  0  0  0  0  0
  -15.9040  -12.2370   29.9990 C   0  0  0  0  0  0  0  0  0  0  0  0
  -15.3230  -12.9650   30.5240 H   0  0  0  0  0  0  0  0  0  0  0  0
  -15.5000  -11.7510   29.1350 H   0  0  0  0  0  0  0  0  0  0  0  0
  -14.9190  -12.4800   29.6610 H   0  0  0  0  0  0  0  0  0  0  0  0
  -15.7810  -18.0320   40.2920 C   0  0  0  0  0  0  0  0  0  0  0  0
  -16.7410  -18.2030   40.7310 H   0  0  0  0  0  0  0  0  0  0  0  0
  -14.9000  -18.4100   40.7670 H   0  0  0  0  0  0  0  0  0  0  0  0
  -15.8610  -18.5820   41.2070 H   0  0  0  0  0  0  0  0  0  0  0  0
  1 11  1  0
  1  2  1  0
  2  3  2  0
  3  4  1  0
  4 12  1  0
  5  4  1  0
  5  6  2  0
  6 58  1  0
  7  6  1  0
  8  7  2  0
  9  8  1  0
  9  5  1  0
 10  2  1  0
 10  9  1  0
 13  8  1  0
 14 19  1  0
 14 13  2  0
 15 14  1  0
 16 15  2  0
 16 17  1  0
 17 18  2  0
 18 13  1  0
 18 22  1  0
 20 15  1  0
 21 16  1  0
 23 17  1  0
 23 24  1  0
 24 25  2  0
 24 29  1  0
 25 26  1  0
 26 31  1  0
 26 27  2  0
 27 32  1  0
 28 27  1  0
 28 33  1  0
 29 28  2  0
 30 25  1  0
 34 29  1  0
 35 40  2  0
 35 36  1  0
 36 37  2  0
 37 38  1  0
 37  1  1  0
 38 42  1  0
 39 48  1  0
 39 38  2  0
 40 39  1  0
 41 36  1  0
 43 35  1  0
 44 46  1  0
 44 43  1  0
 45 44  1  0
 47 44  1  0
 48 49  1  0
 49 50  1  0
 49 51  1  0
 49 52  1  0
 53 40  1  0
 54 53  1  0
 54 55  1  0
 56 54  1  0
 57 54  1  0
 58 59  1  0
 58 60  1  0
 58 61  1  0
M  END
>  <minimizedAffinity>  (138) 
-9.43087864

$$$$

     RDKit          3D

 43 43  0  0  0  0  0  0  0  0999 V2000
  -16.6770  -13.5150   33.7000 C   0  0  0  0  0  2  0  0  0  0  0  0
  -15.4150  -14.1980   34.1360 C   0  0  0  0  0 15  0  0  0  0  0  0
  -14.1110  -13.8580   33.4790 C   0  0  0  0  0  0  0  0  0  0  0  0
  -14.0690  -12.8320   32.3840 N   0  0  0  0  0  4  0  0  0  0  0  0
  -15.3300  -12.1490   31.9480 C   0  0  0  0  0  0  0  0  0  0  0  0
  -15.2880  -11.1230   30.8530 O   0  0  0  0  0  0  0  0  0  0  0  0
  -16.6340  -12.4900   32.6060 N   0  0  0  0  0  0  0  0  0  0  0  0
  -14.1410  -14.5890   34.2590 H   0  0  0  0  0  0  0  0  0  0  0  0
  -13.2120  -12.6090   31.9530 H   0  0  0  0  0  0  0  0  0  0  0  0
  -17.4620  -12.0410   32.3200 H   0  0  0  0  0  0  0  0  0  0  0  0
  -12.8490  -14.5410   33.9150 C   0  0  0  0  0  0  0  0  0  0  0  0
  -12.3830  -14.4210   35.3360 C   0  0  0  0  0  0  0  0  0  0  0  0
  -11.1210  -15.1040   35.7720 C   0  0  0  0  0  0  0  0  0  0  0  0
  -10.3250  -15.9090   34.7870 C   0  0  0  0  0  0  0  0  0  0  0  0
   -9.0630  -16.5930   35.2230 F   0  0  0  0  0  0  0  0  0  0  0  0
  -10.7920  -16.0300   33.3660 C   0  0  0  0  0  0  0  0  0  0  0  0
  -12.0530  -15.3460   32.9300 C   0  0  0  0  0  0  0  0  0  0  0  0
  -12.9310  -13.8670   36.0130 H   0  0  0  0  0  0  0  0  0  0  0  0
  -10.8000  -15.0210   36.7490 H   0  0  0  0  0  0  0  0  0  0  0  0
  -10.2440  -16.5840   32.6890 H   0  0  0  0  0  0  0  0  0  0  0  0
  -12.3740  -15.4290   31.9530 H   0  0  0  0  0  0  0  0  0  0  0  0
  -17.9810  -13.8570   34.3580 C   0  0  0  0  0  0  0  0  0  0  0  0
  -18.0110  -14.5880   35.1390 H   0  0  0  0  0  0  0  0  0  0  0  0
  -18.8810  -13.3680   34.0470 H   0  0  0  0  0  0  0  0  0  0  0  0
  -18.9110  -14.0990   34.8270 H   0  0  0  0  0  0  0  0  0  0  0  0
  -15.4570  -15.2240   35.2310 C   0  0  0  0  0  2  0  0  0  0  0  0
  -15.4280  -16.6850   34.8920 O   0  0  0  0  0  1  0  0  0  0  0  0
  -15.5290  -14.7880   36.6640 N   0  0  0  0  0  0  0  0  0  0  0  0
  -15.5480  -13.8290   36.8870 H   0  0  0  0  0  0  0  0  0  0  0  0
  -15.5710  -15.8130   37.7590 C   0  0  0  0  0  0  0  0  0  0  0  0
  -14.3050  -16.4700   38.2210 C   0  0  0  0  0  0  0  0  0  0  0  0
  -14.3470  -17.4950   39.3150 C   0  0  0  0  0  0  0  0  0  0  0  0
  -15.6560  -17.8630   39.9470 C   0  0  0  0  0  0  0  0  0  0  0  0
  -16.0070  -18.8310   41.0380 N   0  0  0  0  0  0  0  0  0  0  0  0
  -17.4910  -18.7730   41.2510 N   0  0  0  0  0  0  0  0  0  0  0  0
  -18.0570  -17.7690   40.2910 C   0  0  0  0  0  0  0  0  0  0  0  0
  -16.9230  -17.2070   39.4860 C   0  0  0  0  0  0  0  0  0  0  0  0
  -16.8810  -16.1810   38.3910 C   0  0  0  0  0  0  0  0  0  0  0  0
  -13.4040  -16.2160   37.7850 H   0  0  0  0  0  0  0  0  0  0  0  0
  -13.4740  -17.9470   39.6330 H   0  0  0  0  0  0  0  0  0  0  0  0
  -15.3740  -19.4040   41.5280 H   0  0  0  0  0  0  0  0  0  0  0  0
  -19.0520  -17.5100   40.2010 H   0  0  0  0  0  0  0  0  0  0  0  0
  -17.7520  -15.7300   38.0730 H   0  0  0  0  0  0  0  0  0  0  0  0
  1 22  1  0
  3 11  1  0
  3  8  1  0
  4  3  2  0
  5  4  1  0
  5  7  1  0
  6  5  2  0
  7  1  1  0
  9  4  1  0
 10  7  1  0
 11 12  1  0
 12 13  2  0
 12 18  1  0
 13 19  1  0
 14 15  1  0
 14 13  1  0
 16 14  2  0
 17 16  1  0
 17 11  2  0
 20 16  1  0
 21 17  1  0
 22 25  1  0
 22 23  1  0
 24 22  1  0
 26 28  1  0
 27 26  1  0
 28 29  1  0
 28 30  1  0
 30 31  2  0
 30 38  1  0
 31 32  1  0
 32 40  1  0
 32 33  2  0
 33 34  1  0
 34 35  1  0
 34 41  1  0
 36 35  2  0
 37 33  1  0
 37 36  1  0
 38 37  2  0
 39 31  1  0
 42 36  1  0
 43 38  1  0
M  END
>  <minimizedAffinity>  (139) 
-9.45848083

$$$$

     RDKit          3D

 58 57  0  0  1  0  0  0  0  0999 V2000
  -15.7850  -15.9420   37.3930 N   0  0  0  0  0 15  0  0  0  0  0  0
  -15.1890  -16.4000   38.6910 C   0  0  0  0  0  2  0  0  0  0  0  0
  -13.7040  -16.5070   38.5090 N   0  0  0  0  0  2  0  0  0  0  0  0
  -13.3820  -16.1140   37.0970 C   0  0  0  0  0  0  0  0  0  0  0  0
  -12.0840  -16.0300   36.3500 C   0  0  0  0  0  3  0  0  0  0  0  0
  -12.0710  -15.5960   34.9140 N   0  0  0  0  0  0  0  0  0  0  0  0
  -13.3570  -15.2470   34.2250 C   0  0  0  0  0  0  0  0  0  0  0  0
  -14.6550  -15.3310   34.9720 C   0  0  0  0  0  3  0  0  0  0  0  0
  -14.6680  -15.7650   36.4080 C   0  0  0  0  0  3  0  0  0  0  0  0
  -15.5400  -15.0910   34.4980 H   0  0  0  0  0  0  0  0  0  0  0  0
  -15.9460  -16.6990   39.9510 C   0  0  0  0  0  0  0  0  0  0  0  0
  -16.7630  -15.7210   40.7430 N   0  0  0  0  0  0  0  0  0  0  0  0
  -17.3410  -16.4460   41.9220 O   0  0  0  0  0  0  0  0  0  0  0  0
  -16.8800  -17.8720   41.8600 N   0  0  0  0  0  0  0  0  0  0  0  0
  -16.0180  -18.0290   40.6420 C   0  0  0  0  0  0  0  0  0  0  0  0
  -15.3470  -19.2930   40.1940 N   0  0  0  0  0  0  0  0  0  0  0  0
  -14.7980  -19.2960   39.3770 H   0  0  0  0  0  0  0  0  0  0  0  0
  -15.4540  -20.1200   40.7170 H   0  0  0  0  0  0  0  0  0  0  0  0
  -17.2410  -15.7020   37.1270 C   0  0  0  0  0  3  0  0  0  0  0  0
  -17.8620  -16.5040   36.7860 H   0  0  0  0  0  0  0  0  0  0  0  0
  -16.8230  -16.6750   36.9770 H   0  0  0  0  0  0  0  0  0  0  0  0
  -17.8280  -14.3380   37.3380 C   0  0  0  0  0  0  0  0  0  0  0  0
  -17.2070  -13.5360   37.6790 H   0  0  0  0  0  0  0  0  0  0  0  0
  -18.8670  -14.1670   37.1480 H   0  0  0  0  0  0  0  0  0  0  0  0
  -18.2470  -13.3650   37.4890 H   0  0  0  0  0  0  0  0  0  0  0  0
  -10.7980  -16.3790   37.0390 C   0  0  0  0  0  0  0  0  0  0  0  0
   -9.5120  -16.7290   37.7280 C   0  0  0  0  0  0  0  0  0  0  0  0
   -8.2270  -17.0780   38.4180 C   0  0  0  0  0  0  0  0  0  0  0  0
   -7.7490  -15.6670   38.2420 C   0  0  0  0  0  0  0  0  0  0  0  0
   -8.3730  -14.9480   37.7530 H   0  0  0  0  0  0  0  0  0  0  0  0
   -6.7840  -15.3790   38.6050 H   0  0  0  0  0  0  0  0  0  0  0  0
   -7.4090  -14.6600   38.1160 H   0  0  0  0  0  0  0  0  0  0  0  0
   -8.7040  -18.4890   38.5930 C   0  0  0  0  0  0  0  0  0  0  0  0
   -8.0800  -19.2080   39.0820 H   0  0  0  0  0  0  0  0  0  0  0  0
   -9.6690  -18.7760   38.2300 H   0  0  0  0  0  0  0  0  0  0  0  0
   -9.0450  -19.4950   38.7190 H   0  0  0  0  0  0  0  0  0  0  0  0
   -6.9410  -17.4270   39.1070 O   0  0  0  0  0  0  0  0  0  0  0  0
   -6.2580  -16.7500   39.2310 H   0  0  0  0  0  0  0  0  0  0  0  0
  -13.3450  -14.8130   32.7890 O   0  0  0  0  0  0  0  0  0  0  0  0
  -13.6800  -13.3960   32.4310 C   0  0  0  0  0  3  0  0  0  0  0  0
  -12.9930  -12.6090   32.6620 H   0  0  0  0  0  0  0  0  0  0  0  0
  -13.9190  -12.3850   32.1750 H   0  0  0  0  0  0  0  0  0  0  0  0
  -14.9780  -13.0820   31.7490 C   0  0  0  0  0  3  0  0  0  0  0  0
  -14.1740  -13.5160   31.1930 H   0  0  0  0  0  0  0  0  0  0  0  0
  -16.1070  -12.4730   32.5270 C   0  0  0  0  0  0  0  0  0  0  0  0
  -16.1960  -10.9830   32.6780 C   0  0  0  0  0  0  0  0  0  0  0  0
  -17.3240  -10.3750   33.4570 C   0  0  0  0  0  0  0  0  0  0  0  0
  -18.3630  -11.2560   34.0840 C   0  0  0  0  0  0  0  0  0  0  0  0
  -18.2740  -12.7460   33.9330 C   0  0  0  0  0  0  0  0  0  0  0  0
  -17.1460  -13.3540   33.1540 C   0  0  0  0  0  0  0  0  0  0  0  0
  -15.4800  -10.3770   32.2460 H   0  0  0  0  0  0  0  0  0  0  0  0
  -17.3860   -9.3500   33.5610 H   0  0  0  0  0  0  0  0  0  0  0  0
  -19.1400  -10.8370   34.6200 H   0  0  0  0  0  0  0  0  0  0  0  0
  -18.9900  -13.3520   34.3650 H   0  0  0  0  0  0  0  0  0  0  0  0
  -17.0850  -14.3790   33.0500 H   0  0  0  0  0  0  0  0  0  0  0  0
  -15.1480  -13.3760   30.2880 N   0  0  0  0  0  0  0  0  0  0  0  0
  -16.0310  -13.1620   29.8230 H   0  0  0  0  0  0  0  0  0  0  0  0
  -14.3810  -13.7900   29.7580 H   0  0  0  0  0  0  0  0  0  0  0  0
  2 11  1  0
  3  2  1  0
  4  3  1  0
  5 26  1  0
  5  4  1  0
  6  5  1  0
  7  6  2  0
  7  8  1  0
  8  9  1  0
  9  4  2  0
 10  8  1  0
 11 15  1  0
 11 12  2  0
 12 13  1  0
 14 13  1  0
 15 14  2  0
 16 15  1  0
 16 18  1  0
 17 16  1  0
 19 22  1  0
 20 19  1  0
 21 19  1  0
 22 25  1  0
 22 23  1  0
 24 22  1  0
 26 27  3  0
 27 28  1  0
 28 33  1  0
 28 37  1  0
 29 28  1  0
 29 31  1  0
 30 29  1  0
 32 29  1  0
 33 36  1  0
 33 34  1  0
 35 33  1  0
 37 38  1  0
 39  7  1  0
 40 41  1  0
 40 39  1  0
 42 40  1  0
 43 45  1  0
 44 43  1  0
 45 46  2  0
 45 50  1  0
 46 47  1  0
 47 52  1  0
 47 48  2  0
 48 53  1  0
 49 48  1  0
 49 54  1  0
 50 49  2  0
 51 46  1  0
 55 50  1  0
 56 43  1  0
 57 56  1  0
 58 56  1  0
M  END
>  <minimizedAffinity>  (140) 
-10.9398947

$$$$

     RDKit          3D

 47 48  0  0  0  0  0  0  0  0999 V2000
  -16.5570  -15.1130   36.6730 C   0  0  0  0  0  0  0  0  0  0  0  0
  -17.5100  -15.2760   37.8200 C   0  0  0  0  0  0  0  0  0  0  0  0
  -18.9890  -15.2610   37.5750 N   0  0  0  0  0  0  0  0  0  0  0  0
  -19.5170  -15.0830   36.1820 C   0  0  0  0  0  0  0  0  0  0  0  0
  -18.5650  -14.9210   35.0350 C   0  0  0  0  0  0  0  0  0  0  0  0
  -17.0850  -14.9360   35.2800 C   0  0  0  0  0  0  0  0  0  0  0  0
  -17.1460  -15.3980   38.7790 H   0  0  0  0  0  0  0  0  0  0  0  0
  -20.5350  -15.0720   36.0130 H   0  0  0  0  0  0  0  0  0  0  0  0
  -16.4300  -14.8240   34.4900 H   0  0  0  0  0  0  0  0  0  0  0  0
  -14.2210  -16.1770   36.2720 C   0  0  0  0  0  0  0  0  0  0  0  0
  -15.0780  -15.1290   36.9180 C   0  0  0  0  0  0  0  0  0  0  0  0
  -14.6500  -16.8880   35.6590 H   0  0  0  0  0  0  0  0  0  0  0  0
  -14.6490  -14.4180   37.5310 H   0  0  0  0  0  0  0  0  0  0  0  0
  -11.8090  -15.5820   35.5140 C   0  0  0  0  0  0  0  0  0  0  0  0
  -10.3290  -15.5970   35.7590 C   0  0  0  0  0  0  0  0  0  0  0  0
   -9.7820  -16.2230   37.0080 C   0  0  0  0  0  0  0  0  0  0  0  0
  -10.7150  -16.8330   38.0120 C   0  0  0  0  0  0  0  0  0  0  0  0
  -12.1950  -16.8180   37.7660 C   0  0  0  0  0  0  0  0  0  0  0  0
  -12.7410  -16.1920   36.5170 C   0  0  0  0  0  0  0  0  0  0  0  0
   -9.6870  -15.1770   35.0690 H   0  0  0  0  0  0  0  0  0  0  0  0
  -10.3390  -17.2640   38.8710 H   0  0  0  0  0  0  0  0  0  0  0  0
  -12.3560  -14.9560   34.2650 C   0  0  0  0  0  0  0  0  0  0  0  0
  -11.6900  -14.5210   33.5490 H   0  0  0  0  0  0  0  0  0  0  0  0
  -13.4110  -14.9460   34.0900 H   0  0  0  0  0  0  0  0  0  0  0  0
  -12.7460  -14.5100   33.3740 H   0  0  0  0  0  0  0  0  0  0  0  0
  -13.1270  -17.4280   38.7700 C   0  0  0  0  0  0  0  0  0  0  0  0
  -14.1830  -17.4170   38.5950 H   0  0  0  0  0  0  0  0  0  0  0  0
  -12.7370  -17.8750   39.6610 H   0  0  0  0  0  0  0  0  0  0  0  0
  -13.7930  -17.8640   39.4860 H   0  0  0  0  0  0  0  0  0  0  0  0
   -8.3020  -16.2380   37.2530 O   0  0  0  0  0  0  0  0  0  0  0  0
   -7.9610  -16.6290   38.0330 H   0  0  0  0  0  0  0  0  0  0  0  0
  -19.0920  -14.7430   33.6420 C   0  0  0  0  0  0  0  0  0  0  0  0
  -19.4510  -15.9430   32.8170 O   0  0  0  0  0  0  0  0  0  0  0  0
  -19.2610  -13.3650   33.0740 O   0  0  0  0  0  0  0  0  0  0  0  0
  -18.0890  -12.4300   33.0140 C   0  0  0  0  0  0  0  0  0  0  0  0
  -17.4850  -13.2580   31.9190 C   0  0  0  0  0  0  0  0  0  0  0  0
  -17.9930  -14.1310   31.5650 H   0  0  0  0  0  0  0  0  0  0  0  0
  -16.5450  -12.9750   31.4910 H   0  0  0  0  0  0  0  0  0  0  0  0
  -17.0530  -13.8490   31.1370 H   0  0  0  0  0  0  0  0  0  0  0  0
  -18.6940  -11.6020   34.1090 C   0  0  0  0  0  0  0  0  0  0  0  0
  -18.1860  -10.7290   34.4630 H   0  0  0  0  0  0  0  0  0  0  0  0
  -19.6330  -11.8850   34.5370 H   0  0  0  0  0  0  0  0  0  0  0  0
  -19.1250  -11.0120   34.8900 H   0  0  0  0  0  0  0  0  0  0  0  0
  -16.9180  -11.4950   32.9540 C   0  0  0  0  0  0  0  0  0  0  0  0
  -16.1260  -11.6730   32.2560 H   0  0  0  0  0  0  0  0  0  0  0  0
  -16.8730  -10.6500   33.6090 H   0  0  0  0  0  0  0  0  0  0  0  0
  -16.0820  -10.8280   32.9110 H   0  0  0  0  0  0  0  0  0  0  0  0
  1 11  1  0
  1  2  1  0
  2  7  1  0
  3  2  2  0
  4  3  1  0
  5  6  1  0
  5  4  2  0
  6  1  2  0
  8  4  1  0
  9  6  1  0
 10 19  1  0
 10 11  2  0
 11 13  1  0
 12 10  1  0
 14 15  2  0
 14 19  1  0
 15 16  1  0
 16 30  1  0
 16 17  2  0
 17 21  1  0
 18 17  1  0
 18 26  1  0
 19 18  2  0
 20 15  1  0
 22 14  1  0
 23 22  1  0
 24 22  1  0
 25 22  1  0
 26 29  1  0
 26 28  1  0
 27 26  1  0
 30 31  1  0
 32  5  1  0
 33 32  2  0
 34 32  1  0
 35 34  1  0
 35 40  1  0
 36 35  1  0
 37 36  1  0
 38 36  1  0
 39 36  1  0
 40 41  1  0
 40 42  1  0
 40 43  1  0
 44 35  1  0
 44 46  1  0
 45 44  1  0
 47 44  1  0
M  END
>  <minimizedAffinity>  (141) 
-7.97243834

$$$$

     RDKit          3D

 51 50  0  0  0  0  0  0  0  0999 V2000
  -15.4160  -14.8880   35.2740 C   0  0  0  0  0  0  0  0  0  0  0  0
  -15.4720  -14.3410   33.8780 C   0  0  0  0  0  0  0  0  0  0  0  0
  -14.2260  -14.2790   33.0470 C   0  0  0  0  0  0  0  0  0  0  0  0
  -12.9230  -14.7630   33.6100 C   0  0  0  0  0  0  0  0  0  0  0  0
  -11.6760  -14.7000   32.7790 N   0  0  0  0  0  0  0  0  0  0  0  0
  -10.3730  -15.1840   33.3430 C   0  0  0  0  0  0  0  0  0  0  0  0
  -10.3170  -15.7310   34.7380 N   0  0  0  0  0  0  0  0  0  0  0  0
  -11.5630  -15.7930   35.5700 C   0  0  0  0  0  0  0  0  0  0  0  0
  -11.5070  -16.3390   36.9660 N   0  0  0  0  0  0  0  0  0  0  0  0
  -12.8660  -15.3090   35.0060 C   0  0  0  0  0  0  0  0  0  0  0  0
  -14.1130  -15.3720   35.8380 C   0  0  0  0  0  0  0  0  0  0  0  0
  -16.3690  -14.0080   33.4900 H   0  0  0  0  0  0  0  0  0  0  0  0
  -14.2640  -13.9030   32.0860 H   0  0  0  0  0  0  0  0  0  0  0  0
   -9.5150  -15.1410   32.7700 H   0  0  0  0  0  0  0  0  0  0  0  0
  -12.3250  -16.3810   37.5120 H   0  0  0  0  0  0  0  0  0  0  0  0
  -14.0740  -15.7480   36.7990 H   0  0  0  0  0  0  0  0  0  0  0  0
  -10.2040  -16.8230   37.5300 C   0  0  0  0  0  0  0  0  0  0  0  0
  -10.0490  -18.2590   37.9350 C   0  0  0  0  0  0  0  0  0  0  0  0
   -8.7460  -18.7430   38.4990 C   0  0  0  0  0  0  0  0  0  0  0  0
   -7.5980  -17.7910   38.6580 C   0  0  0  0  0  0  0  0  0  0  0  0
   -6.2950  -18.2750   39.2220 F   0  0  0  0  0  0  0  0  0  0  0  0
   -7.7530  -16.3550   38.2530 C   0  0  0  0  0  0  0  0  0  0  0  0
   -6.6040  -15.4030   38.4110 Cl  0  0  0  0  0  0  0  0  0  0  0  0
   -9.0560  -15.8710   37.6890 C   0  0  0  0  0  0  0  0  0  0  0  0
  -10.8390  -18.9140   37.8260 H   0  0  0  0  0  0  0  0  0  0  0  0
   -8.6400  -19.7310   38.7780 H   0  0  0  0  0  0  0  0  0  0  0  0
   -9.1620  -14.8830   37.4100 H   0  0  0  0  0  0  0  0  0  0  0  0
  -18.1720  -14.9480   38.0070 C   0  0  0  0  0  1  0  0  0  0  0  0
  -16.7330  -14.8280   37.6000 N   0  0  0  0  0  1  0  0  0  0  0  0
  -16.6630  -14.9500   36.1060 C   0  0  0  0  0  0  0  0  0  0  0  0
  -18.0570  -15.1460   35.5910 C   0  0  0  0  0  0  0  0  0  0  0  0
  -18.9900  -15.1450   36.7660 S   0  0  0  0  0  0  0  0  0  0  0  0
  -18.3280  -15.2610   34.6010 H   0  0  0  0  0  0  0  0  0  0  0  0
  -18.6990  -14.8830   39.4100 C   0  0  0  0  0  3  0  0  0  0  0  0
  -19.7520  -14.8030   39.5820 H   0  0  0  0  0  0  0  0  0  0  0  0
  -19.3760  -14.8490   38.5810 H   0  0  0  0  0  0  0  0  0  0  0  0
  -17.7500  -14.9300   40.5710 N   0  0  0  0  0  2  0  0  0  0  0  0
  -17.3770  -14.0650   40.9600 H   0  0  0  0  0  0  0  0  0  0  0  0
  -17.3510  -16.2510   41.1600 C   0  0  0  0  0  2  0  0  0  0  0  0
  -18.0620  -17.0490   41.2150 H   0  0  0  0  0  0  0  0  0  0  0  0
  -18.3470  -16.1060   40.7950 H   0  0  0  0  0  0  0  0  0  0  0  0
  -15.9560  -16.4530   41.6720 C   0  0  0  0  0  3  0  0  0  0  0  0
  -15.7960  -16.7350   42.6920 H   0  0  0  0  0  0  0  0  0  0  0  0
  -16.7910  -16.5910   42.3270 H   0  0  0  0  0  0  0  0  0  0  0  0
  -14.7850  -16.2600   40.7540 S   0  0  2  0  0  0  0  0  0  0  0  0
  -14.8540  -17.7050   40.3620 O   0  0  0  0  0  0  0  0  0  0  0  0
  -14.7160  -14.8140   41.1470 O   0  0  0  0  0  0  0  0  0  0  0  0
  -13.6150  -16.0660   39.8370 C   0  0  0  0  0  0  0  0  0  0  0  0
  -13.1540  -15.1040   39.7520 H   0  0  0  0  0  0  0  0  0  0  0  0
  -13.2390  -16.8910   39.2670 H   0  0  0  0  0  0  0  0  0  0  0  0
  -12.7790  -15.9290   39.1820 H   0  0  0  0  0  0  0  0  0  0  0  0
  1 11  1  0
  1 30  1  0
  2  1  2  0
  3  4  2  0
  3  2  1  0
  4 10  1  0
  5  6  2  0
  5  4  1  0
  6  7  1  0
  7  8  2  0
  8  9  1  0
  9 15  1  0
  9 17  1  0
 10  8  1  0
 10 11  2  0
 11 16  1  0
 12  2  1  0
 13  3  1  0
 14  6  1  0
 17 24  2  0
 17 18  1  0
 18 19  2  0
 19 20  1  0
 19 26  1  0
 20 21  1  0
 22 23  1  0
 22 20  2  0
 24 22  1  0
 25 18  1  0
 27 24  1  0
 30 29  1  0
 31 30  2  0
 31 32  1  0
 32 28  1  0
 33 31  1  0
 34 35  1  0
 34 37  1  0
 36 34  1  0
 37 38  1  0
 39 40  1  0
 41 39  1  0
 42 44  1  0
 42 43  1  0
 45 47  2  0
 45 42  1  0
 46 45  2  0
 48 45  1  0
 49 48  1  0
 50 48  1  0
 51 48  1  0
M  END
>  <minimizedAffinity>  (142) 
-10.6975603

$$$$

     RDKit          3D

 38 40  0  0  0  0  0  0  0  0999 V2000
  -15.4610  -15.4900   40.2160 C   0  0  0  0  0  0  0  0  0  0  0  0
  -14.7480  -15.1230   38.9490 C   0  0  0  0  0  0  0  0  0  0  0  0
  -15.2470  -15.6370   37.6310 C   0  0  0  0  0  0  0  0  0  0  0  0
  -16.4590  -16.5200   37.5810 C   0  0  0  0  0  0  0  0  0  0  0  0
  -17.1720  -16.8880   38.8480 C   0  0  0  0  0  0  0  0  0  0  0  0
  -16.6730  -16.3730   40.1660 C   0  0  0  0  0  0  0  0  0  0  0  0
  -13.9140  -14.5150   38.9830 H   0  0  0  0  0  0  0  0  0  0  0  0
  -16.8020  -16.8740   36.6740 H   0  0  0  0  0  0  0  0  0  0  0  0
  -17.1640  -16.6260   41.0380 H   0  0  0  0  0  0  0  0  0  0  0  0
  -14.5340  -15.2690   36.3640 N   0  0  0  0  0  0  0  0  0  0  0  0
  -13.0670  -15.5470   36.2210 C   0  0  0  0  0  0  0  0  0  0  0  0
  -12.2230  -15.2370   35.0200 N   0  0  0  0  0  0  0  0  0  0  0  0
  -10.8210  -15.6810   35.3110 C   0  0  0  0  0  0  0  0  0  0  0  0
  -10.7970  -16.2670   36.6920 C   0  0  0  0  0  0  0  0  0  0  0  0
  -12.1850  -16.1830   37.2540 O   0  0  0  0  0  0  0  0  0  0  0  0
  -15.0280  -14.8460   35.6250 H   0  0  0  0  0  0  0  0  0  0  0  0
  -10.0140  -15.5990   34.6730 H   0  0  0  0  0  0  0  0  0  0  0  0
   -9.5960  -16.8350   37.3890 C   0  0  0  0  0  0  0  0  0  0  0  0
   -8.5520  -15.9180   37.9520 C   0  0  0  0  0  0  0  0  0  0  0  0
   -7.3510  -16.4870   38.6490 C   0  0  0  0  0  0  0  0  0  0  0  0
   -7.1940  -17.9720   38.7810 C   0  0  0  0  0  0  0  0  0  0  0  0
   -8.2390  -18.8900   38.2170 C   0  0  0  0  0  0  0  0  0  0  0  0
   -9.4400  -18.3210   37.5210 C   0  0  0  0  0  0  0  0  0  0  0  0
   -8.6600  -14.8950   37.8610 H   0  0  0  0  0  0  0  0  0  0  0  0
   -6.6330  -15.8550   39.0360 H   0  0  0  0  0  0  0  0  0  0  0  0
   -6.3680  -18.3630   39.2600 H   0  0  0  0  0  0  0  0  0  0  0  0
   -8.1320  -19.9120   38.3080 H   0  0  0  0  0  0  0  0  0  0  0  0
  -10.1580  -18.9520   37.1330 H   0  0  0  0  0  0  0  0  0  0  0  0
  -14.9630  -14.9760   41.5340 O   0  0  0  0  0  0  0  0  0  0  0  0
  -13.5850  -14.3920   41.6380 C   0  0  0  0  0  0  0  0  0  0  0  0
  -12.9580  -14.3420   40.7720 H   0  0  0  0  0  0  0  0  0  0  0  0
  -13.2290  -14.0250   42.5780 H   0  0  0  0  0  0  0  0  0  0  0  0
  -12.6020  -13.9750   41.7120 H   0  0  0  0  0  0  0  0  0  0  0  0
  -18.3830  -17.7710   38.7970 O   0  0  0  0  0  0  0  0  0  0  0  0
  -19.3830  -17.7370   39.9150 C   0  0  0  0  0  0  0  0  0  0  0  0
  -19.2310  -17.0830   40.7490 H   0  0  0  0  0  0  0  0  0  0  0  0
  -20.2480  -18.3670   39.8800 H   0  0  0  0  0  0  0  0  0  0  0  0
  -20.0960  -17.7130   40.7130 H   0  0  0  0  0  0  0  0  0  0  0  0
  1 29  1  0
  2  7  1  0
  2  1  2  0
  3  2  1  0
  4  3  2  0
  4  5  1  0
  5  6  2  0
  6  1  1  0
  6  9  1  0
  8  4  1  0
 10  3  1  0
 11 10  1  0
 11 15  1  0
 12 13  1  0
 12 11  2  0
 13 14  2  0
 14 15  1  0
 14 18  1  0
 16 10  1  0
 17 13  1  0
 18 23  2  0
 18 19  1  0
 19 20  2  0
 20 21  1  0
 20 25  1  0
 21 26  1  0
 22 27  1  0
 22 21  2  0
 23 22  1  0
 24 19  1  0
 28 23  1  0
 29 30  1  0
 30 33  1  0
 30 32  1  0
 31 30  1  0
 34  5  1  0
 34 35  1  0
 35 38  1  0
 35 36  1  0
 37 35  1  0
M  END
>  <minimizedAffinity>  (143) 
-7.96907568

$$$$

     RDKit          3D

 58 57  0  0  1  0  0  0  0  0999 V2000
  -15.7780  -15.9310   37.3850 N   0  0  0  0  0 15  0  0  0  0  0  0
  -15.1840  -16.3900   38.6840 C   0  0  0  0  0  2  0  0  0  0  0  0
  -13.6990  -16.5000   38.5020 N   0  0  0  0  0  2  0  0  0  0  0  0
  -13.3750  -16.1080   37.0910 C   0  0  0  0  0  0  0  0  0  0  0  0
  -12.0760  -16.0250   36.3450 C   0  0  0  0  0  3  0  0  0  0  0  0
  -12.0620  -15.5920   34.9090 N   0  0  0  0  0  0  0  0  0  0  0  0
  -13.3470  -15.2400   34.2190 C   0  0  0  0  0  0  0  0  0  0  0  0
  -14.6460  -15.3230   34.9650 C   0  0  0  0  0  3  0  0  0  0  0  0
  -14.6600  -15.7560   36.4010 C   0  0  0  0  0  3  0  0  0  0  0  0
  -15.5290  -15.0810   34.4900 H   0  0  0  0  0  0  0  0  0  0  0  0
  -15.9410  -16.6880   39.9430 C   0  0  0  0  0  0  0  0  0  0  0  0
  -16.7570  -15.7080   40.7340 N   0  0  0  0  0  0  0  0  0  0  0  0
  -17.3370  -16.4330   41.9140 O   0  0  0  0  0  0  0  0  0  0  0  0
  -16.8800  -17.8600   41.8510 N   0  0  0  0  0  0  0  0  0  0  0  0
  -16.0170  -18.0180   40.6340 C   0  0  0  0  0  0  0  0  0  0  0  0
  -15.3480  -19.2830   40.1860 N   0  0  0  0  0  0  0  0  0  0  0  0
  -14.7990  -19.2870   39.3690 H   0  0  0  0  0  0  0  0  0  0  0  0
  -15.4570  -20.1100   40.7080 H   0  0  0  0  0  0  0  0  0  0  0  0
  -17.2330  -15.6890   37.1180 C   0  0  0  0  0  3  0  0  0  0  0  0
  -17.8460  -16.4790   36.7350 H   0  0  0  0  0  0  0  0  0  0  0  0
  -16.8070  -16.6510   36.9250 H   0  0  0  0  0  0  0  0  0  0  0  0
  -17.8320  -14.3410   37.3880 C   0  0  0  0  0  0  0  0  0  0  0  0
  -17.2200  -13.5510   37.7720 H   0  0  0  0  0  0  0  0  0  0  0  0
  -18.8700  -14.1680   37.1980 H   0  0  0  0  0  0  0  0  0  0  0  0
  -18.2590  -13.3790   37.5810 H   0  0  0  0  0  0  0  0  0  0  0  0
  -10.7910  -16.3760   37.0350 C   0  0  0  0  0  0  0  0  0  0  0  0
   -9.5070  -16.7280   37.7250 C   0  0  0  0  0  0  0  0  0  0  0  0
   -8.2220  -17.0790   38.4150 C   0  0  0  0  0  0  0  0  0  0  0  0
   -8.7020  -18.4890   38.5920 C   0  0  0  0  0  0  0  0  0  0  0  0
   -9.6680  -18.7740   38.2280 H   0  0  0  0  0  0  0  0  0  0  0  0
   -8.0800  -19.2090   39.0810 H   0  0  0  0  0  0  0  0  0  0  0  0
   -9.0450  -19.4940   38.7180 H   0  0  0  0  0  0  0  0  0  0  0  0
   -7.7410  -15.6690   38.2380 C   0  0  0  0  0  0  0  0  0  0  0  0
   -6.7760  -15.3830   38.6010 H   0  0  0  0  0  0  0  0  0  0  0  0
   -8.3640  -14.9490   37.7480 H   0  0  0  0  0  0  0  0  0  0  0  0
   -7.3990  -14.6630   38.1120 H   0  0  0  0  0  0  0  0  0  0  0  0
   -6.9370  -17.4300   39.1050 O   0  0  0  0  0  0  0  0  0  0  0  0
   -6.7910  -18.3330   39.4270 H   0  0  0  0  0  0  0  0  0  0  0  0
  -13.3330  -14.8070   32.7830 O   0  0  0  0  0  0  0  0  0  0  0  0
  -13.6720  -13.3910   32.4240 C   0  0  0  0  0  3  0  0  0  0  0  0
  -12.9870  -12.6010   32.6540 H   0  0  0  0  0  0  0  0  0  0  0  0
  -13.9150  -12.3800   32.1680 H   0  0  0  0  0  0  0  0  0  0  0  0
  -14.9720  -13.0810   31.7420 C   0  0  0  0  0  3  0  0  0  0  0  0
  -14.1660  -13.5110   31.1860 H   0  0  0  0  0  0  0  0  0  0  0  0
  -16.1020  -12.4770   32.5210 C   0  0  0  0  0  0  0  0  0  0  0  0
  -16.1880  -10.9890   32.6880 C   0  0  0  0  0  0  0  0  0  0  0  0
  -17.3180  -10.3850   33.4670 C   0  0  0  0  0  0  0  0  0  0  0  0
  -18.3630  -11.2690   34.0800 C   0  0  0  0  0  0  0  0  0  0  0  0
  -18.2780  -12.7570   33.9130 C   0  0  0  0  0  0  0  0  0  0  0  0
  -17.1480  -13.3610   33.1340 C   0  0  0  0  0  0  0  0  0  0  0  0
  -15.4680  -10.3800   32.2660 H   0  0  0  0  0  0  0  0  0  0  0  0
  -17.3770   -9.3610   33.5820 H   0  0  0  0  0  0  0  0  0  0  0  0
  -19.1410  -10.8530   34.6160 H   0  0  0  0  0  0  0  0  0  0  0  0
  -18.9970  -13.3660   34.3350 H   0  0  0  0  0  0  0  0  0  0  0  0
  -17.0890  -14.3850   33.0190 H   0  0  0  0  0  0  0  0  0  0  0  0
  -15.1410  -13.3750   30.2810 N   0  0  0  0  0  0  0  0  0  0  0  0
  -16.0250  -13.1640   29.8170 H   0  0  0  0  0  0  0  0  0  0  0  0
  -14.3730  -13.7860   29.7510 H   0  0  0  0  0  0  0  0  0  0  0  0
  2 11  1  0
  3  2  1  0
  4  3  1  0
  5 26  1  0
  5  4  1  0
  6  5  1  0
  7  6  2  0
  7  8  1  0
  8  9  1  0
  9  4  2  0
 10  8  1  0
 11 15  1  0
 11 12  2  0
 12 13  1  0
 14 13  1  0
 15 14  2  0
 16 15  1  0
 16 18  1  0
 17 16  1  0
 19 22  1  0
 20 19  1  0
 21 19  1  0
 22 25  1  0
 22 23  1  0
 24 22  1  0
 26 27  3  0
 27 28  1  0
 28 29  1  0
 28 37  1  0
 29 32  1  0
 29 31  1  0
 30 29  1  0
 33 28  1  0
 33 34  1  0
 35 33  1  0
 36 33  1  0
 37 38  1  0
 39  7  1  0
 40 41  1  0
 40 39  1  0
 42 40  1  0
 43 45  1  0
 44 43  1  0
 45 46  2  0
 45 50  1  0
 46 47  1  0
 47 52  1  0
 47 48  2  0
 48 53  1  0
 49 48  1  0
 49 54  1  0
 50 49  2  0
 51 46  1  0
 55 50  1  0
 56 43  1  0
 57 56  1  0
 58 56  1  0
M  END
>  <minimizedAffinity>  (144) 
-10.95574

$$$$

     RDKit          3D

 36 35  0  0  0  0  0  0  0  0999 V2000
  -17.1000  -13.4500   33.5070 O   0  0  0  0  0  1  0  0  0  0  0  0
  -15.8970  -12.9400   32.7690 C   0  0  0  0  0  2  0  0  0  0  0  0
  -14.5220  -13.3580   33.1980 N   0  0  0  0  0  0  0  0  0  0  0  0
  -14.3500  -14.2850   34.3640 C   0  0  0  0  0  0  0  0  0  0  0  0
  -15.4520  -14.8730   35.1940 N   0  0  0  0  0  0  0  0  0  0  0  0
  -14.8290  -15.7390   36.2480 N   0  0  0  0  0  0  0  0  0  0  0  0
  -13.3400  -15.6860   36.0700 C   0  0  0  0  0  0  0  0  0  0  0  0
  -12.2160  -16.3400   36.8170 C   0  0  0  0  0  0  0  0  0  0  0  0
  -10.7960  -16.0960   36.4000 C   0  0  0  0  0  0  0  0  0  0  0  0
  -10.5000  -15.1980   35.2360 C   0  0  0  0  0  0  0  0  0  0  0  0
  -11.6240  -14.5440   34.4880 C   0  0  0  0  0  0  0  0  0  0  0  0
  -13.0440  -14.7880   34.9050 C   0  0  0  0  0  0  0  0  0  0  0  0
  -13.7320  -13.0240   32.7140 H   0  0  0  0  0  0  0  0  0  0  0  0
  -15.3110  -16.2520   36.9360 H   0  0  0  0  0  0  0  0  0  0  0  0
  -12.4190  -16.9580   37.6180 H   0  0  0  0  0  0  0  0  0  0  0  0
   -9.5230  -15.0300   34.9490 H   0  0  0  0  0  0  0  0  0  0  0  0
  -11.4200  -13.9260   33.6870 H   0  0  0  0  0  0  0  0  0  0  0  0
   -9.6710  -16.7500   37.1470 C   0  0  0  0  0  0  0  0  0  0  0  0
   -9.5450  -18.2440   37.1550 C   0  0  0  0  0  0  0  0  0  0  0  0
   -8.4210  -18.8980   37.9020 C   0  0  0  0  0  0  0  0  0  0  0  0
   -7.4230  -18.0580   38.6420 C   0  0  0  0  0  0  0  0  0  0  0  0
   -6.2990  -18.7120   39.3890 F   0  0  0  0  0  0  0  0  0  0  0  0
   -7.5490  -16.5630   38.6340 C   0  0  0  0  0  0  0  0  0  0  0  0
   -8.6740  -15.9090   37.8870 C   0  0  0  0  0  0  0  0  0  0  0  0
  -10.2320  -18.8230   36.6460 H   0  0  0  0  0  0  0  0  0  0  0  0
   -8.3340  -19.9270   37.9080 H   0  0  0  0  0  0  0  0  0  0  0  0
   -6.8630  -15.9850   39.1430 H   0  0  0  0  0  0  0  0  0  0  0  0
   -8.7600  -14.8810   37.8820 H   0  0  0  0  0  0  0  0  0  0  0  0
  -16.0700  -12.0120   31.6030 C   0  0  0  0  0 15  0  0  0  0  0  0
  -16.4240  -11.7890   30.1620 C   0  0  0  0  0  2  0  0  0  0  0  0
  -16.0160  -10.6300   31.0240 C   0  0  0  0  0  3  0  0  0  0  0  0
  -16.1930  -11.3510   30.7710 H   0  0  0  0  0  0  0  0  0  0  0  0
  -16.7370  -12.1730   29.2140 H   0  0  0  0  0  0  0  0  0  0  0  0
  -16.4670  -10.9360   29.5180 H   0  0  0  0  0  0  0  0  0  0  0  0
  -15.8260   -9.5830   31.1400 H   0  0  0  0  0  0  0  0  0  0  0  0
  -15.7230  -10.5140   32.0460 H   0  0  0  0  0  0  0  0  0  0  0  0
  2  3  1  0
  2  1  1  0
  3  4  1  0
  4 12  1  0
  4  5  2  0
  5  6  1  0
  6 14  1  0
  7  6  1  0
  7  8  1  0
  8 15  1  0
  9  8  2  0
  9 18  1  0
 10  9  1  0
 11 12  1  0
 11 10  2  0
 12  7  2  0
 13  3  1  0
 16 10  1  0
 17 11  1  0
 18 19  2  0
 18 24  1  0
 19 20  1  0
 20 26  1  0
 20 21  2  0
 21 22  1  0
 23 21  1  0
 23 27  1  0
 24 23  2  0
 25 19  1  0
 28 24  1  0
 31 35  1  0
 31 36  1  0
 32 31  1  0
 33 30  1  0
 34 30  1  0
M  END
>  <minimizedAffinity>  (145) 
-9.71265221

$$$$

     RDKit          3D

 43 46  0  0  0  0  0  0  0  0999 V2000
  -10.9270  -15.7980   34.7590 C   0  0  0  0  0  0  0  0  0  0  0  0
   -9.7380  -16.2230   35.5690 C   0  0  0  0  0  0  0  0  0  0  0  0
   -9.9310  -16.7850   36.9460 C   0  0  0  0  0  0  0  0  0  0  0  0
  -11.3120  -16.9210   37.5140 C   0  0  0  0  0  0  0  0  0  0  0  0
  -12.5010  -16.4950   36.7050 C   0  0  0  0  0  0  0  0  0  0  0  0
  -12.3090  -15.9340   35.3270 C   0  0  0  0  0  0  0  0  0  0  0  0
   -8.7870  -16.1300   35.1780 H   0  0  0  0  0  0  0  0  0  0  0  0
  -11.4450  -17.3070   38.4620 H   0  0  0  0  0  0  0  0  0  0  0  0
   -8.7420  -17.2100   37.7560 C   0  0  0  0  0  0  0  0  0  0  0  0
   -8.4520  -18.6030   38.2310 C   0  0  0  0  0  0  0  0  0  0  0  0
   -7.1650  -18.5710   39.0010 C   0  0  0  0  0  0  0  0  0  0  0  0
   -6.6590  -17.1590   39.0020 C   0  0  0  0  0  0  0  0  0  0  0  0
   -7.6340  -16.3180   38.2320 O   0  0  0  0  0  0  0  0  0  0  0  0
   -9.0360  -19.4370   38.0590 H   0  0  0  0  0  0  0  0  0  0  0  0
   -6.7080  -19.3790   39.4520 H   0  0  0  0  0  0  0  0  0  0  0  0
   -5.7940  -16.8250   39.4520 H   0  0  0  0  0  0  0  0  0  0  0  0
  -10.7350  -15.2360   33.3820 C   0  0  0  0  0  0  0  0  0  0  0  0
   -9.7490  -15.1390   32.9770 H   0  0  0  0  0  0  0  0  0  0  0  0
  -11.5830  -14.9320   32.8040 H   0  0  0  0  0  0  0  0  0  0  0  0
  -10.5970  -14.8350   32.3990 H   0  0  0  0  0  0  0  0  0  0  0  0
  -13.8830  -16.6310   37.2730 C   0  0  0  0  0  0  0  0  0  0  0  0
  -14.7310  -16.3280   36.6950 H   0  0  0  0  0  0  0  0  0  0  0  0
  -14.0200  -17.0320   38.2550 H   0  0  0  0  0  0  0  0  0  0  0  0
  -14.8690  -16.7280   37.6780 H   0  0  0  0  0  0  0  0  0  0  0  0
  -13.4980  -15.5080   34.5180 C   0  0  0  0  0  0  0  0  0  0  0  0
  -13.9500  -14.0780   34.5430 C   0  0  0  0  0  0  0  0  0  0  0  0
  -14.0050  -16.1990   33.9430 H   0  0  0  0  0  0  0  0  0  0  0  0
  -13.4420  -13.3870   35.1180 H   0  0  0  0  0  0  0  0  0  0  0  0
  -15.1390  -13.6530   33.7340 C   0  0  0  0  0  0  0  0  0  0  0  0
  -16.5120  -14.1170   34.1180 C   0  0  0  0  0  0  0  0  0  0  0  0
  -17.7010  -13.6910   33.3090 N   0  0  0  0  0  0  0  0  0  0  0  0
  -17.5160  -12.8010   32.1150 C   0  0  0  0  0  0  0  0  0  0  0  0
  -16.1430  -12.3370   31.7310 C   0  0  0  0  0  0  0  0  0  0  0  0
  -14.9540  -12.7630   32.5410 C   0  0  0  0  0  0  0  0  0  0  0  0
  -16.6390  -14.7290   34.9390 H   0  0  0  0  0  0  0  0  0  0  0  0
  -18.3340  -12.5080   31.5580 H   0  0  0  0  0  0  0  0  0  0  0  0
  -14.0090  -12.4440   32.2760 H   0  0  0  0  0  0  0  0  0  0  0  0
  -15.9580  -11.4480   30.5380 C   0  0  0  0  0  0  0  0  0  0  0  0
  -16.4490  -11.7240   29.1470 N   0  0  0  0  0  0  0  0  0  0  0  0
  -16.0440  -10.5730   28.2750 N   0  0  0  0  0  2  0  0  0  0  0  0
  -15.3030   -9.5850   29.1260 N   0  0  0  0  0  0  0  0  0  0  0  0
  -15.2490  -10.1250   30.5250 N   0  0  0  0  0  2  0  0  0  0  0  0
  -14.9190   -8.7310   28.8210 H   0  0  0  0  0  0  0  0  0  0  0  0
  1  6  2  0
  1  2  1  0
  2  3  2  0
  3  4  1  0
  3  9  1  0
  4  8  1  0
  5 21  1  0
  5  4  2  0
  6  5  1  0
  7  2  1  0
  9 10  2  0
  9 13  1  0
 10 11  1  0
 11 12  2  0
 11 15  1  0
 12 16  1  0
 13 12  1  0
 14 10  1  0
 17  1  1  0
 18 17  1  0
 19 17  1  0
 20 17  1  0
 21 24  1  0
 21 23  1  0
 22 21  1  0
 25 26  2  0
 25  6  1  0
 26 28  1  0
 27 25  1  0
 29 30  1  0
 29 26  1  0
 30 35  1  0
 31 30  2  0
 32 31  1  0
 33 32  2  0
 33 34  1  0
 34 29  2  0
 36 32  1  0
 37 34  1  0
 38 33  1  0
 39 38  2  0
 40 41  1  0
 40 39  1  0
 41 42  1  0
 42 38  1  0
 43 41  1  0
M  END
>  <minimizedAffinity>  (146) 
-9.24983501

$$$$

     RDKit          3D

 41 44  0  0  0  0  0  0  0  0999 V2000
   -9.3650  -16.1670   34.2980 N   0  0  0  0  0  0  0  0  0  0  0  0
  -10.7590  -15.6240   34.1840 C   0  0  0  0  0  0  0  0  0  0  0  0
  -11.2410  -15.0590   32.8810 N   0  0  0  0  0  0  0  0  0  0  0  0
  -12.6340  -14.5180   32.7680 C   0  0  0  0  0  0  0  0  0  0  0  0
  -13.5470  -14.5410   33.9570 C   0  0  0  0  0  0  0  0  0  0  0  0
  -13.0660  -15.1060   35.2610 C   0  0  0  0  0  0  0  0  0  0  0  0
  -13.7340  -15.2620   36.5950 S   0  0  0  0  0  0  0  0  0  0  0  0
  -12.7520  -15.9000   37.5330 C   0  0  0  0  0  0  0  0  0  0  0  0
  -11.4780  -16.1380   36.7790 C   0  0  0  0  0  0  0  0  0  0  0  0
  -11.6720  -15.6480   35.3740 C   0  0  0  0  0  0  0  0  0  0  0  0
   -8.7660  -16.1510   33.5170 H   0  0  0  0  0  0  0  0  0  0  0  0
   -9.0490  -16.5370   35.1530 H   0  0  0  0  0  0  0  0  0  0  0  0
  -12.9660  -14.1290   31.8710 H   0  0  0  0  0  0  0  0  0  0  0  0
  -12.9240  -16.1340   38.5230 H   0  0  0  0  0  0  0  0  0  0  0  0
  -10.2290  -16.7590   37.3320 C   0  0  0  0  0  0  0  0  0  0  0  0
  -10.1530  -18.2440   37.5290 C   0  0  0  0  0  0  0  0  0  0  0  0
   -8.9050  -18.8650   38.0820 C   0  0  0  0  0  0  0  0  0  0  0  0
   -7.7310  -18.0000   38.4370 C   0  0  0  0  0  0  0  0  0  0  0  0
   -6.4830  -18.6190   38.9890 F   0  0  0  0  0  0  0  0  0  0  0  0
   -7.8070  -16.5150   38.2390 C   0  0  0  0  0  0  0  0  0  0  0  0
   -6.6340  -15.6500   38.5940 Cl  0  0  0  0  0  0  0  0  0  0  0  0
   -9.0560  -15.8950   37.6860 C   0  0  0  0  0  0  0  0  0  0  0  0
  -10.9610  -18.8390   37.2850 H   0  0  0  0  0  0  0  0  0  0  0  0
   -8.8520  -19.8850   38.2180 H   0  0  0  0  0  0  0  0  0  0  0  0
   -9.1080  -14.8730   37.5500 H   0  0  0  0  0  0  0  0  0  0  0  0
  -14.9420  -13.9990   33.8450 C   0  0  0  0  0  0  0  0  0  0  0  0
  -15.1980  -12.7400   33.0700 C   0  0  0  0  0  0  0  0  0  0  0  0
  -16.5920  -12.1990   32.9580 C   0  0  0  0  0  0  0  0  0  0  0  0
  -17.7300  -12.9160   33.6200 C   0  0  0  0  0  0  0  0  0  0  0  0
  -17.4750  -14.1760   34.3940 C   0  0  0  0  0  0  0  0  0  0  0  0
  -16.0810  -14.7170   34.5070 C   0  0  0  0  0  0  0  0  0  0  0  0
  -14.4140  -12.2460   32.6150 H   0  0  0  0  0  0  0  0  0  0  0  0
  -16.7680  -11.3330   32.4250 H   0  0  0  0  0  0  0  0  0  0  0  0
  -18.6890  -12.5440   33.5430 H   0  0  0  0  0  0  0  0  0  0  0  0
  -15.9050  -15.5830   35.0390 H   0  0  0  0  0  0  0  0  0  0  0  0
  -18.6130  -14.8930   35.0560 S   0  0  2  0  0  0  0  0  0  0  0  0
  -18.9320  -15.5810   33.7620 O   0  0  0  0  0  0  0  0  0  0  0  0
  -18.2940  -14.2050   36.3500 O   0  0  0  0  0  0  0  0  0  0  0  0
  -19.7520  -15.6110   35.7180 N   0  0  0  0  0  0  0  0  0  0  0  0
  -20.3270  -16.2600   35.1820 H   0  0  0  0  0  0  0  0  0  0  0  0
  -19.9520  -15.4500   36.7060 H   0  0  0  0  0  0  0  0  0  0  0  0
  1 12  1  0
  2  1  1  0
  2 10  1  0
  3  2  2  0
  4  3  1  0
  4  5  2  0
  5  6  1  0
  6 10  2  0
  6  7  1  0
  7  8  1  0
  8 14  1  0
  9 15  1  0
  9  8  2  0
 10  9  1  0
 11  1  1  0
 13  4  1  0
 15 16  2  0
 15 22  1  0
 16 17  1  0
 17 24  1  0
 17 18  2  0
 18 19  1  0
 20 18  1  0
 20 21  1  0
 22 20  2  0
 23 16  1  0
 25 22  1  0
 26  5  1  0
 26 31  1  0
 27 26  2  0
 28 27  1  0
 28 29  2  0
 29 30  1  0
 30 31  2  0
 30 36  1  0
 31 35  1  0
 32 27  1  0
 33 28  1  0
 34 29  1  0
 36 39  1  0
 36 38  2  0
 37 36  2  0
 39 41  1  0
 40 39  1  0
M  END
>  <minimizedAffinity>  (147) 
-9.68514633

$$$$

     RDKit          3D

 69 65  0  0  0  0  0  0  0  0999 V2000
  -14.8270  -12.9090   32.1500 C   0  0  0  0  0  0  0  0  0  0  0  0
  -15.3040  -13.0060   30.7310 C   0  0  0  0  0  0  0  0  0  0  0  0
  -16.4270  -12.0270   30.5520 C   0  0  0  0  0  0  0  0  0  0  0  0
  -17.2800  -11.6840   29.3670 N   0  0  0  0  0  0  0  0  0  0  0  0
  -18.3500  -10.6400   29.4900 C   0  0  0  0  0  0  0  0  0  0  0  0
  -18.5670   -9.9390   30.7990 N   0  0  0  0  0  0  0  0  0  0  0  0
  -17.7140  -10.2820   31.9840 C   0  0  0  0  0  0  0  0  0  0  0  0
  -16.6440  -11.3260   31.8610 C   0  0  0  0  0  0  0  0  0  0  0  0
  -15.6550  -11.8710   32.8490 S   0  0  0  0  0  0  0  0  0  0  0  0
  -14.9250  -13.6340   30.0060 H   0  0  0  0  0  0  0  0  0  0  0  0
  -18.9370  -10.4040   28.6750 H   0  0  0  0  0  0  0  0  0  0  0  0
  -12.6070  -14.5100   33.3760 C   0  0  0  0  0  1  0  0  0  0  0  0
  -13.7170  -13.7100   32.7630 C   0  0  0  0  0  2  0  0  0  0  0  0
  -10.1390  -16.5250   35.5950 C   0  0  0  0  0  2  0  0  0  0  0  0
   -9.4350  -16.5630   34.2710 C   0  0  0  0  0  2  0  0  0  0  0  0
  -10.2740  -15.8130   33.2780 N   0  0  0  0  0  1  0  0  0  0  0  0
  -11.4960  -15.3110   33.9890 C   0  0  0  0  0  2  0  0  0  0  0  0
  -11.4130  -15.7510   35.4220 C   0  0  0  0  0  3  0  0  0  0  0  0
   -9.2060  -17.0460   35.5560 H   0  0  0  0  0  0  0  0  0  0  0  0
   -8.5000  -17.0410   34.0700 H   0  0  0  0  0  0  0  0  0  0  0  0
   -9.0640  -16.5000   33.2690 H   0  0  0  0  0  0  0  0  0  0  0  0
  -10.0520  -15.6700   32.2930 H   0  0  0  0  0  0  0  0  0  0  0  0
  -11.4080  -15.0770   32.9500 H   0  0  0  0  0  0  0  0  0  0  0  0
  -12.1350  -15.5480   36.1840 H   0  0  0  0  0  0  0  0  0  0  0  0
  -11.2070  -16.1360   36.3980 H   0  0  0  0  0  0  0  0  0  0  0  0
   -9.6550  -17.1500   36.8700 O   0  0  0  0  0  0  0  0  0  0  0  0
   -8.7480  -15.6210   38.7640 O   0  0  0  0  0  0  0  0  0  0  0  0
   -9.8570  -16.4410   38.1760 C   0  0  0  0  0  0  0  0  0  0  0  0
  -11.1690  -16.5520   38.8950 N   0  0  0  0  0  2  0  0  0  0  0  0
  -11.3710  -15.8440   40.2010 C   0  0  0  0  0  3  0  0  0  0  0  0
  -12.6840  -15.9550   40.9200 C   0  0  0  0  0  2  0  0  0  0  0  0
  -13.7940  -16.7760   40.3310 O   0  0  0  0  0  1  0  0  0  0  0  0
  -13.5910  -17.4840   39.0250 C   0  0  0  0  0  3  0  0  0  0  0  0
  -12.2790  -17.3730   38.3070 C   0  0  0  0  0  2  0  0  0  0  0  0
  -10.5800  -15.2590   40.6210 H   0  0  0  0  0  0  0  0  0  0  0  0
  -11.5160  -15.3380   41.1330 H   0  0  0  0  0  0  0  0  0  0  0  0
  -12.8280  -15.4500   41.8510 H   0  0  0  0  0  0  0  0  0  0  0  0
  -13.6200  -16.0350   41.4320 H   0  0  0  0  0  0  0  0  0  0  0  0
  -14.3830  -18.0700   38.6060 H   0  0  0  0  0  0  0  0  0  0  0  0
  -13.4460  -17.9900   38.0930 H   0  0  0  0  0  0  0  0  0  0  0  0
  -12.1340  -17.8780   37.3750 H   0  0  0  0  0  0  0  0  0  0  0  0
  -11.3430  -17.2930   37.7940 H   0  0  0  0  0  0  0  0  0  0  0  0
  -17.9310   -9.5820   33.2920 N   0  0  0  0  0  0  0  0  0  0  0  0
  -17.7680   -8.6130   33.3640 H   0  0  0  0  0  0  0  0  0  0  0  0
  -18.3970  -10.3560   34.4890 C   0  0  0  0  0  0  0  0  0  0  0  0
  -18.4590   -9.6930   35.8330 C   0  0  0  0  0  0  0  0  0  0  0  0
  -18.9240  -10.4670   37.0310 C   0  0  0  0  0  0  0  0  0  0  0  0
  -19.3270  -11.9050   36.8840 C   0  0  0  0  0  0  0  0  0  0  0  0
  -19.2650  -12.5680   35.5400 C   0  0  0  0  0  0  0  0  0  0  0  0
  -19.6680  -14.0050   35.3940 Cl  0  0  0  0  0  0  0  0  0  0  0  0
  -18.7990  -11.7930   34.3430 C   0  0  0  0  0  0  0  0  0  0  0  0
  -18.1820   -8.7040   35.9340 H   0  0  0  0  0  0  0  0  0  0  0  0
  -18.9670  -10.0110   37.9560 H   0  0  0  0  0  0  0  0  0  0  0  0
  -18.7560  -12.2490   33.4180 H   0  0  0  0  0  0  0  0  0  0  0  0
  -19.7920  -12.6790   38.0820 O   0  0  0  0  0  0  0  0  0  0  0  0
  -18.7980  -13.1550   39.0990 C   0  0  0  0  0  0  0  0  0  0  0  0
  -18.3280  -12.4540   39.7570 H   0  0  0  0  0  0  0  0  0  0  0  0
  -18.0890  -13.4950   39.8260 H   0  0  0  0  0  0  0  0  0  0  0  0
  -18.4640  -14.6140   39.1950 C   0  0  0  0  0  0  0  0  0  0  0  0
  -19.0150  -15.4380   40.3210 C   0  0  0  0  0  0  0  0  0  0  0  0
  -18.6810  -16.8970   40.4170 C   0  0  0  0  0  0  0  0  0  0  0  0
  -17.7940  -17.5320   39.3870 C   0  0  0  0  0  0  0  0  0  0  0  0
  -17.2420  -16.7080   38.2620 C   0  0  0  0  0  0  0  0  0  0  0  0
  -16.3550  -17.3430   37.2320 F   0  0  0  0  0  0  0  0  0  0  0  0
  -17.5770  -15.2490   38.1660 C   0  0  0  0  0  0  0  0  0  0  0  0
  -19.6260  -15.0000   41.0290 H   0  0  0  0  0  0  0  0  0  0  0  0
  -19.0600  -17.4630   41.1910 H   0  0  0  0  0  0  0  0  0  0  0  0
  -17.5630  -18.5360   39.4530 H   0  0  0  0  0  0  0  0  0  0  0  0
  -17.1970  -14.6820   37.3910 H   0  0  0  0  0  0  0  0  0  0  0  0
  1 13  1  0
  1  9  1  0
  2  1  2  0
  3  2  1  0
  3  8  2  0
  4  5  2  0
  4  3  1  0
  5  6  1  0
  6  7  2  0
  7 43  1  0
  8  7  1  0
  8  9  1  0
 10  2  1  0
 11  5  1  0
 13 12  1  0
 14 26  1  0
 17 18  1  0
 18 24  1  0
 18 25  1  0
 19 14  1  0
 20 15  1  0
 21 15  1  0
 22 16  1  0
 23 17  1  0
 26 28  1  0
 28 27  2  0
 28 29  1  0
 29 30  1  0
 30 35  1  0
 30 36  1  0
 31 38  1  0
 31 37  1  0
 33 32  1  0
 39 33  1  0
 40 33  1  0
 41 34  1  0
 42 34  1  0
 43 44  1  0
 43 45  1  0
 45 46  1  0
 46 52  1  0
 46 47  2  0
 47 53  1  0
 48 47  1  0
 48 55  1  0
 49 48  2  0
 50 49  1  0
 51 45  2  0
 51 49  1  0
 54 51  1  0
 55 56  1  0
 56 59  1  0
 56 57  1  0
 56 58  1  0
 59 60  1  0
 60 61  2  0
 60 66  1  0
 61 67  1  0
 62 68  1  0
 62 61  1  0
 63 62  2  0
 64 63  1  0
 65 63  1  0
 65 59  2  0
 69 65  1  0
M  END
>  <minimizedAffinity>  (148) 
-10.9415798

$$$$

     RDKit          3D

 28 27  0  0  0  0  0  0  0  0999 V2000
  -12.4820  -16.3540   37.3950 N   0  0  0  0  0 15  0  0  0  0  0  0
  -13.8450  -16.1020   37.9710 C   0  0  0  0  0  2  0  0  0  0  0  0
  -14.6180  -15.2720   36.9900 N   0  0  0  0  0  2  0  0  0  0  0  0
  -13.7330  -15.0100   35.8070 C   0  0  0  0  0  0  0  0  0  0  0  0
  -13.9590  -14.2490   34.5340 C   0  0  0  0  0  0  0  0  0  0  0  0
  -12.8650  -14.1560   33.5120 C   0  0  0  0  0  0  0  0  0  0  0  0
  -11.5460  -14.8240   33.7620 C   0  0  0  0  0  0  0  0  0  0  0  0
  -10.4520  -14.7310   32.7400 F   0  0  0  0  0  0  0  0  0  0  0  0
  -11.3200  -15.5850   35.0350 C   0  0  0  0  0  0  0  0  0  0  0  0
  -12.4140  -15.6780   36.0570 C   0  0  0  0  0  3  0  0  0  0  0  0
  -14.8670  -13.7890   34.3610 H   0  0  0  0  0  0  0  0  0  0  0  0
  -13.0200  -13.6320   32.6360 H   0  0  0  0  0  0  0  0  0  0  0  0
  -10.4120  -16.0450   35.2070 H   0  0  0  0  0  0  0  0  0  0  0  0
  -14.3460  -16.5950   39.2960 C   0  0  0  0  0  0  0  0  0  0  0  0
  -13.6940  -16.3630   40.6270 N   0  0  0  0  0  0  0  0  0  0  0  0
  -14.5320  -17.0320   41.6770 O   0  0  0  0  0  0  0  0  0  0  0  0
  -15.7020  -17.6770   40.9940 N   0  0  0  0  0  0  0  0  0  0  0  0
  -15.5870  -17.4070   39.5220 C   0  0  0  0  0  0  0  0  0  0  0  0
  -16.5450  -17.8680   38.4650 N   0  0  0  0  0  0  0  0  0  0  0  0
  -16.3830  -17.6400   37.5210 H   0  0  0  0  0  0  0  0  0  0  0  0
  -17.3350  -18.3990   38.7130 H   0  0  0  0  0  0  0  0  0  0  0  0
  -11.3830  -17.1410   38.0420 C   0  0  0  0  0  3  0  0  0  0  0  0
  -11.3200  -18.1990   37.8900 H   0  0  0  0  0  0  0  0  0  0  0  0
  -12.1050  -17.6360   37.4280 H   0  0  0  0  0  0  0  0  0  0  0  0
  -10.3700  -16.4470   38.9040 C   0  0  0  0  0  0  0  0  0  0  0  0
  -10.4320  -15.3900   39.0560 H   0  0  0  0  0  0  0  0  0  0  0  0
   -9.5850  -17.0090   39.3650 H   0  0  0  0  0  0  0  0  0  0  0  0
   -9.6470  -15.9520   39.5180 H   0  0  0  0  0  0  0  0  0  0  0  0
  2 14  1  0
  3  2  1  0
  4 10  1  0
  4  3  1  0
  5  4  2  0
  6  7  2  0
  6  5  1  0
  7  9  1  0
  8  7  1  0
  9 13  1  0
  9 10  2  0
 11  5  1  0
 12  6  1  0
 14 18  1  0
 14 15  2  0
 15 16  1  0
 17 16  1  0
 18 17  2  0
 19 21  1  0
 19 18  1  0
 20 19  1  0
 22 25  1  0
 23 22  1  0
 24 22  1  0
 25 26  1  0
 25 27  1  0
 25 28  1  0
M  END
>  <minimizedAffinity>  (149) 
-8.34304428

$$$$

     RDKit          3D

 34 37  0  0  0  0  0  0  0  0999 V2000
   -7.0030  -16.7050   38.5990 N   0  0  0  0  0  0  0  0  0  0  0  0
   -8.4010  -16.5470   38.0810 C   0  0  0  0  0  0  0  0  0  0  0  0
   -8.7880  -15.9990   36.7390 N   0  0  0  0  0  0  0  0  0  0  0  0
  -10.2850  -16.0230   36.6420 C   0  0  0  0  0  0  0  0  0  0  0  0
  -10.8230  -16.5850   37.9240 C   0  0  0  0  0  0  0  0  0  0  0  0
   -9.6590  -16.9090   38.8130 S   0  0  0  0  0  0  0  0  0  0  0  0
   -6.8500  -17.0770   39.4970 H   0  0  0  0  0  0  0  0  0  0  0  0
   -6.2380  -16.4370   38.0410 H   0  0  0  0  0  0  0  0  0  0  0  0
  -12.2710  -16.7880   38.2580 C   0  0  0  0  0  0  0  0  0  0  0  0
  -13.1570  -17.5550   37.3210 C   0  0  0  0  0  0  0  0  0  0  0  0
  -14.6050  -17.7580   37.6550 C   0  0  0  0  0  0  0  0  0  0  0  0
  -15.1680  -17.1940   38.9260 C   0  0  0  0  0  0  0  0  0  0  0  0
  -16.6160  -17.3970   39.2600 N   0  0  0  0  0  0  0  0  0  0  0  0
  -17.1780  -16.8320   40.5310 C   0  0  0  0  0  0  0  0  0  0  0  0
  -16.2930  -16.0660   41.4680 C   0  0  0  0  0  0  0  0  0  0  0  0
  -14.8450  -15.8630   41.1340 C   0  0  0  0  0  0  0  0  0  0  0  0
  -14.2820  -16.4270   39.8630 C   0  0  0  0  0  0  0  0  0  0  0  0
  -12.8340  -16.2240   39.5290 N   0  0  0  0  0  0  0  0  0  0  0  0
  -12.7700  -17.9430   36.4470 H   0  0  0  0  0  0  0  0  0  0  0  0
  -15.2140  -18.2860   37.0110 H   0  0  0  0  0  0  0  0  0  0  0  0
  -18.1750  -16.9720   40.7610 H   0  0  0  0  0  0  0  0  0  0  0  0
  -16.6800  -15.6770   42.3420 H   0  0  0  0  0  0  0  0  0  0  0  0
  -14.2350  -15.3350   41.7780 H   0  0  0  0  0  0  0  0  0  0  0  0
  -11.0990  -15.5640   35.4690 C   0  0  0  0  0  0  0  0  0  0  0  0
  -10.5500  -15.6890   34.0790 C   0  0  0  0  0  0  0  0  0  0  0  0
  -11.3650  -15.2310   32.9060 C   0  0  0  0  0  0  0  0  0  0  0  0
  -12.7300  -14.6470   33.1230 C   0  0  0  0  0  0  0  0  0  0  0  0
  -13.2790  -14.5220   34.5140 C   0  0  0  0  0  0  0  0  0  0  0  0
  -14.6430  -13.9380   34.7300 Cl  0  0  0  0  0  0  0  0  0  0  0  0
  -12.4640  -14.9810   35.6860 C   0  0  0  0  0  0  0  0  0  0  0  0
   -9.6110  -16.0910   33.9290 H   0  0  0  0  0  0  0  0  0  0  0  0
  -10.9870  -15.3170   31.9500 H   0  0  0  0  0  0  0  0  0  0  0  0
  -13.2900  -14.3320   32.3160 H   0  0  0  0  0  0  0  0  0  0  0  0
  -12.8420  -14.8940   36.6430 H   0  0  0  0  0  0  0  0  0  0  0  0
  1  7  1  0
  2  1  1  0
  2  6  1  0
  3  2  2  0
  4  3  1  0
  4  5  2  0
  5  9  1  0
  5  6  1  0
  8  1  1  0
  9 18  1  0
 10 11  1  0
 10  9  2  0
 11 12  2  0
 12 13  1  0
 12 17  1  0
 13 14  2  0
 14 21  1  0
 14 15  1  0
 15 22  1  0
 16 15  2  0
 16 23  1  0
 17 16  1  0
 18 17  2  0
 19 10  1  0
 20 11  1  0
 24 30  1  0
 24  4  1  0
 25 24  2  0
 26 27  2  0
 26 25  1  0
 27 28  1  0
 28 29  1  0
 28 30  2  0
 30 34  1  0
 31 25  1  0
 32 26  1  0
 33 27  1  0
M  END
>  <minimizedAffinity>  (150) 
-8.92079544

$$$$

     RDKit          3D

 59 53  0  0  0  0  0  0  0  0999 V2000
  -16.6890  -15.5280   36.1780 C   0  0  0  0  0  0  0  0  0  0  0  0
  -18.1190  -15.2350   35.8320 C   0  0  0  0  0  0  0  0  0  0  0  0
  -18.4460  -14.4430   34.6010 C   0  0  0  0  0  0  0  0  0  0  0  0
  -17.3430  -13.9440   33.7150 C   0  0  0  0  0  0  0  0  0  0  0  0
  -15.9130  -14.2370   34.0610 C   0  0  0  0  0  0  0  0  0  0  0  0
  -15.5860  -15.0290   35.2920 C   0  0  0  0  0  0  0  0  0  0  0  0
  -18.8780  -15.5780   36.4420 H   0  0  0  0  0  0  0  0  0  0  0  0
  -19.4300  -14.2410   34.3630 H   0  0  0  0  0  0  0  0  0  0  0  0
  -15.1540  -13.8930   33.4510 H   0  0  0  0  0  0  0  0  0  0  0  0
  -14.1570  -15.3220   35.6380 C   0  0  0  0  0  0  0  0  0  0  0  0
  -13.8330  -16.3270   36.7030 C   0  0  0  0  0  0  0  0  0  0  0  0
  -12.4030  -16.6200   37.0480 C   0  0  0  0  0  0  0  0  0  0  0  0
  -11.2970  -15.9080   36.3290 C   0  0  0  0  0  0  0  0  0  0  0  0
  -11.6200  -14.9020   35.2630 C   0  0  0  0  0  0  0  0  0  0  0  0
  -13.0500  -14.6090   34.9180 C   0  0  0  0  0  0  0  0  0  0  0  0
  -14.5950  -16.8170   37.1980 H   0  0  0  0  0  0  0  0  0  0  0  0
  -12.1810  -17.3120   37.7810 H   0  0  0  0  0  0  0  0  0  0  0  0
  -10.8580  -14.4120   34.7680 H   0  0  0  0  0  0  0  0  0  0  0  0
  -13.2720  -13.9180   34.1850 H   0  0  0  0  0  0  0  0  0  0  0  0
   -9.8670  -16.2010   36.6740 C   0  0  0  0  0  0  0  0  0  0  0  0
   -8.9040  -16.6080   35.5990 O   0  0  0  0  0  0  0  0  0  0  0  0
   -9.4000  -16.0870   38.0950 N   0  0  0  0  0  0  0  0  0  0  0  0
  -10.0320  -15.8190   38.8000 H   0  0  0  0  0  0  0  0  0  0  0  0
   -7.9700  -16.3800   38.4410 C   0  0  0  0  0  0  0  0  0  0  0  0
   -7.2690  -15.5770   38.5420 H   0  0  0  0  0  0  0  0  0  0  0  0
   -6.9500  -16.5880   38.6870 H   0  0  0  0  0  0  0  0  0  0  0  0
   -7.5230  -17.7970   38.6440 C   0  0  0  0  0  1  0  0  0  0  0  0
   -7.8130  -19.2680   38.6090 C   0  0  0  0  0  2  0  0  0  0  0  0
   -6.4590  -18.7800   39.0320 C   0  0  0  0  0  3  0  0  0  0  0  0
   -7.2040  -18.8080   38.7900 H   0  0  0  0  0  0  0  0  0  0  0  0
   -8.4900  -20.0750   38.4200 H   0  0  0  0  0  0  0  0  0  0  0  0
   -7.2540  -20.1550   38.8280 H   0  0  0  0  0  0  0  0  0  0  0  0
   -5.4640  -18.9840   39.3670 H   0  0  0  0  0  0  0  0  0  0  0  0
   -6.0020  -17.8190   39.1430 H   0  0  0  0  0  0  0  0  0  0  0  0
  -16.3620  -16.3200   37.4090 C   0  0  0  0  0  0  0  0  0  0  0  0
  -17.1500  -16.6760   38.0410 H   0  0  0  0  0  0  0  0  0  0  0  0
  -15.3420  -16.5290   37.6550 H   0  0  0  0  0  0  0  0  0  0  0  0
  -16.1290  -16.8850   38.2870 H   0  0  0  0  0  0  0  0  0  0  0  0
  -17.6700  -13.1520   32.4840 C   0  0  0  0  0  0  0  0  0  0  0  0
  -18.7420  -12.1030   32.5300 O   0  0  0  0  0  0  0  0  0  0  0  0
  -16.9260  -13.4090   31.2070 N   0  0  0  0  0  0  0  0  0  0  0  0
  -16.2230  -14.0970   31.1770 H   0  0  0  0  0  0  0  0  0  0  0  0
  -17.2530  -12.6170   29.9760 C   0  0  0  0  0  2  0  0  0  0  0  0
  -18.3250  -13.0920   29.0410 C   0  0  0  0  0  2  0  0  0  0  0  0
  -18.6520  -12.3000   27.8100 C   0  0  0  0  0  2  0  0  0  0  0  0
  -17.9070  -11.0330   27.5140 C   0  0  0  0  0  2  0  0  0  0  0  0
  -16.8340  -10.5570   28.4490 C   0  0  0  0  0  2  0  0  0  0  0  0
  -16.5070  -11.3490   29.6800 C   0  0  0  0  0  2  0  0  0  0  0  0
  -17.4860  -12.0520   29.0980 H   0  0  0  0  0  0  0  0  0  0  0  0
  -18.8570  -13.9960   29.2530 H   0  0  0  0  0  0  0  0  0  0  0  0
  -19.0910  -13.4310   28.3750 H   0  0  0  0  0  0  0  0  0  0  0  0
  -19.4180  -12.6390   27.1430 H   0  0  0  0  0  0  0  0  0  0  0  0
  -18.8860  -11.7350   26.9320 H   0  0  0  0  0  0  0  0  0  0  0  0
  -18.1400  -10.4680   26.6360 H   0  0  0  0  0  0  0  0  0  0  0  0
  -17.3750  -10.1280   27.3020 H   0  0  0  0  0  0  0  0  0  0  0  0
  -16.3020   -9.6530   28.2370 H   0  0  0  0  0  0  0  0  0  0  0  0
  -16.0690  -10.2180   29.1150 H   0  0  0  0  0  0  0  0  0  0  0  0
  -15.7420  -11.0100   30.3470 H   0  0  0  0  0  0  0  0  0  0  0  0
  -16.2740  -11.9140   30.5580 H   0  0  0  0  0  0  0  0  0  0  0  0
  1 35  1  0
  2  1  1  0
  2  7  1  0
  3  2  2  0
  4  5  2  0
  4  3  1  0
  5  6  1  0
  6 10  1  0
  6  1  2  0
  8  3  1  0
  9  5  1  0
 10 11  1  0
 11 12  2  0
 11 16  1  0
 12 17  1  0
 13 20  1  0
 13 12  1  0
 14 13  2  0
 15 14  1  0
 15 10  2  0
 18 14  1  0
 19 15  1  0
 20 22  1  0
 21 20  2  0
 22 24  1  0
 22 23  1  0
 24 25  1  0
 24 27  1  0
 24 26  1  0
 28 32  1  0
 29 34  1  0
 29 33  1  0
 30 29  1  0
 31 28  1  0
 35 37  1  0
 35 36  1  0
 35 38  1  0
 39 40  2  0
 39  4  1  0
 41 39  1  0
 42 41  1  0
 43 41  1  0
 44 50  1  0
 47 57  1  0
 48 58  1  0
 48 59  1  0
 49 43  1  0
 51 44  1  0
 52 45  1  0
 53 45  1  0
 54 46  1  0
 55 46  1  0
 56 47  1  0
M  END
>  <minimizedAffinity>  (151) 
-10.1557131

$$$$

     RDKit          3D

 58 62  0  0  0  0  0  0  0  0999 V2000
  -11.8200  -15.8700   35.9770 C   0  0  0  0  0  0  0  0  0  0  0  0
  -11.4810  -16.3570   34.6000 C   0  0  0  0  0  0  0  0  0  0  0  0
  -11.8500  -15.5360   33.4010 C   0  0  0  0  0  0  0  0  0  0  0  0
  -12.5600  -14.2270   33.5790 C   0  0  0  0  0  0  0  0  0  0  0  0
  -12.9000  -13.7390   34.9550 C   0  0  0  0  0  0  0  0  0  0  0  0
  -12.5300  -14.5610   36.1550 C   0  0  0  0  0  0  0  0  0  0  0  0
  -10.9920  -17.2590   34.4770 H   0  0  0  0  0  0  0  0  0  0  0  0
  -11.6160  -15.8720   32.4530 H   0  0  0  0  0  0  0  0  0  0  0  0
  -13.3880  -12.8390   35.0780 H   0  0  0  0  0  0  0  0  0  0  0  0
  -12.7640  -14.2250   37.1020 H   0  0  0  0  0  0  0  0  0  0  0  0
  -12.3510  -17.0280   38.3270 C   0  0  0  0  0  0  0  0  0  0  0  0
  -11.5720  -17.8650   39.2970 O   0  0  0  0  0  0  0  0  0  0  0  0
  -10.1890  -18.0470   38.7450 C   0  0  0  0  0  0  0  0  0  0  0  0
   -8.9890  -18.7790   39.2680 N   0  0  0  0  0  0  0  0  0  0  0  0
   -7.7130  -18.7870   38.4790 C   0  0  0  0  0  0  0  0  0  0  0  0
   -7.6370  -18.0620   37.1680 N   0  0  0  0  0  0  0  0  0  0  0  0
   -8.8380  -17.3290   36.6460 C   0  0  0  0  0  0  0  0  0  0  0  0
  -10.1140  -17.3220   37.4340 C   0  0  0  0  0  0  0  0  0  0  0  0
  -11.4500  -16.6920   37.1750 C   0  0  0  0  0  0  0  0  0  0  0  0
   -6.8870  -19.2910   38.8380 H   0  0  0  0  0  0  0  0  0  0  0  0
  -16.6400  -15.7460   38.7890 C   0  0  0  0  0  0  0  0  0  0  0  0
  -15.6160  -15.3170   39.7980 C   0  0  0  0  0  0  0  0  0  0  0  0
  -14.1870  -15.7440   39.6440 C   0  0  0  0  0  0  0  0  0  0  0  0
  -13.7810  -16.6010   38.4810 C   0  0  0  0  0  0  0  0  0  0  0  0
  -14.8050  -17.0300   37.4720 C   0  0  0  0  0  0  0  0  0  0  0  0
  -16.2340  -16.6030   37.6260 C   0  0  0  0  0  0  0  0  0  0  0  0
  -15.8950  -14.7280   40.5980 H   0  0  0  0  0  0  0  0  0  0  0  0
  -13.4820  -15.4490   40.3380 H   0  0  0  0  0  0  0  0  0  0  0  0
  -14.5250  -17.6190   36.6720 H   0  0  0  0  0  0  0  0  0  0  0  0
  -16.9390  -16.8980   36.9320 H   0  0  0  0  0  0  0  0  0  0  0  0
  -18.0700  -15.3190   38.9430 O   0  0  0  0  0  0  0  0  0  0  0  0
  -19.0230  -15.4620   37.7940 C   0  0  0  0  0  0  0  0  0  0  0  0
  -18.6830  -15.8690   36.8640 H   0  0  0  0  0  0  0  0  0  0  0  0
  -20.0430  -15.1580   37.9040 H   0  0  0  0  0  0  0  0  0  0  0  0
  -19.7030  -15.5640   36.9740 H   0  0  0  0  0  0  0  0  0  0  0  0
   -8.7630  -16.6040   35.3350 N   0  0  0  0  0  0  0  0  0  0  0  0
   -7.9250  -16.6090   34.8170 H   0  0  0  0  0  0  0  0  0  0  0  0
   -9.5510  -16.1240   34.9920 H   0  0  0  0  0  0  0  0  0  0  0  0
  -12.9300  -13.4050   32.3790 N   0  0  0  0  0  0  0  0  0  0  0  0
  -14.3690  -13.0740   32.1120 C   0  0  0  0  0  0  0  0  0  0  0  0
  -15.4370  -13.5640   33.0440 O   0  0  0  0  0  0  0  0  0  0  0  0
  -14.7390  -12.2520   30.9140 N   0  0  0  0  0  0  0  0  0  0  0  0
  -12.2290  -13.0830   31.7670 H   0  0  0  0  0  0  0  0  0  0  0  0
  -14.0380  -11.9300   30.3020 H   0  0  0  0  0  0  0  0  0  0  0  0
  -16.1780  -11.9200   30.6470 C   0  0  0  0  0  0  0  0  0  0  0  0
  -16.9040  -12.5880   29.5170 C   0  0  0  0  0  0  0  0  0  0  0  0
  -18.3420  -12.2570   29.2500 C   0  0  0  0  0  0  0  0  0  0  0  0
  -19.0550  -11.2580   30.1130 C   0  0  0  0  0  0  0  0  0  0  0  0
  -18.3280  -10.5910   31.2430 C   0  0  0  0  0  0  0  0  0  0  0  0
  -16.8900  -10.9220   31.5090 C   0  0  0  0  0  0  0  0  0  0  0  0
  -16.1630  -10.2540   32.6400 F   0  0  0  0  0  0  0  0  0  0  0  0
  -16.4140  -13.2750   28.9230 H   0  0  0  0  0  0  0  0  0  0  0  0
  -20.0440  -11.0300   29.9290 H   0  0  0  0  0  0  0  0  0  0  0  0
  -18.8180   -9.9030   31.8370 H   0  0  0  0  0  0  0  0  0  0  0  0
  -19.0680  -12.9240   28.1200 C   0  0  0  0  0  0  0  0  0  0  0  0
  -19.7940  -13.5920   26.9900 F   0  0  0  0  0  0  0  0  0  0  0  0
  -19.2710  -14.1430   28.9700 F   0  0  0  0  0  0  0  0  0  0  0  0
  -18.8650  -11.7060   27.2700 F   0  0  0  0  0  0  0  0  0  0  0  0
  1  6  1  0
  1 19  1  0
  2  1  2  0
  3  4  2  0
  3  2  1  0
  4  5  1  0
  5  9  1  0
  5  6  2  0
  6 10  1  0
  7  2  1  0
  8  3  1  0
 11 24  1  0
 11 12  1  0
 13 14  2  0
 13 12  1  0
 15 20  1  0
 15 14  1  0
 16 15  2  0
 17 16  1  0
 17 18  2  0
 18 13  1  0
 19 18  1  0
 19 11  2  0
 21 31  1  0
 21 22  1  0
 22 27  1  0
 23 22  2  0
 23 28  1  0
 24 23  1  0
 25 26  1  0
 25 24  2  0
 26 21  2  0
 29 25  1  0
 30 26  1  0
 32 34  1  0
 32 31  1  0
 33 32  1  0
 35 32  1  0
 36 17  1  0
 37 36  1  0
 38 36  1  0
 39  4  1  0
 40 39  1  0
 40 41  2  0
 42 40  1  0
 43 39  1  0
 44 42  1  0
 45 42  1  0
 45 50  1  0
 46 45  2  0
 47 46  1  0
 47 48  2  0
 48 49  1  0
 49 50  2  0
 49 54  1  0
 50 51  1  0
 52 46  1  0
 53 48  1  0
 55 57  1  0
 55 47  1  0
 56 55  1  0
 58 55  1  0
M  END
>  <minimizedAffinity>  (152) 
-7.32791853

$$$$

     RDKit          3D

 37 39  0  0  0  0  0  0  0  0999 V2000
  -12.0330  -15.5290   35.0560 C   0  0  0  0  0  0  0  0  0  0  0  0
  -13.3180  -15.5730   35.8280 C   0  0  0  0  0  0  0  0  0  0  0  0
  -13.3370  -16.1230   37.2230 C   0  0  0  0  0  0  0  0  0  0  0  0
  -12.0700  -16.6300   37.8470 C   0  0  0  0  0  0  0  0  0  0  0  0
  -10.7850  -16.5860   37.0750 C   0  0  0  0  0  0  0  0  0  0  0  0
  -10.7660  -16.0360   35.6800 C   0  0  0  0  0  0  0  0  0  0  0  0
  -14.1900  -15.2240   35.3990 H   0  0  0  0  0  0  0  0  0  0  0  0
  -12.0830  -17.0090   38.8070 H   0  0  0  0  0  0  0  0  0  0  0  0
   -9.5180  -17.0930   37.6980 C   0  0  0  0  0  0  0  0  0  0  0  0
   -8.4890  -16.1240   38.1990 C   0  0  0  0  0  0  0  0  0  0  0  0
   -7.2220  -16.6300   38.8220 C   0  0  0  0  0  0  0  0  0  0  0  0
   -6.9850  -18.1060   38.9450 C   0  0  0  0  0  0  0  0  0  0  0  0
   -8.0140  -19.0760   38.4450 C   0  0  0  0  0  0  0  0  0  0  0  0
   -9.2810  -18.5690   37.8210 C   0  0  0  0  0  0  0  0  0  0  0  0
   -8.6520  -15.1080   38.1140 H   0  0  0  0  0  0  0  0  0  0  0  0
   -6.5140  -15.9630   39.1670 H   0  0  0  0  0  0  0  0  0  0  0  0
   -6.1130  -18.4550   39.3740 H   0  0  0  0  0  0  0  0  0  0  0  0
   -7.8510  -20.0910   38.5290 H   0  0  0  0  0  0  0  0  0  0  0  0
   -9.9900  -19.2360   37.4770 H   0  0  0  0  0  0  0  0  0  0  0  0
  -14.6230  -16.1670   37.9950 C   0  0  0  0  0  0  0  0  0  0  0  0
  -15.7920  -16.9400   37.4610 C   0  0  0  0  0  0  0  0  0  0  0  0
  -17.0780  -16.9840   38.2320 C   0  0  0  0  0  0  0  0  0  0  0  0
  -17.1930  -16.2550   39.5380 N   0  0  0  0  0  0  0  0  0  0  0  0
  -16.0240  -15.4820   40.0730 C   0  0  0  0  0  0  0  0  0  0  0  0
  -14.7380  -15.4380   39.3010 C   0  0  0  0  0  0  0  0  0  0  0  0
  -15.7120  -17.4410   36.5620 H   0  0  0  0  0  0  0  0  0  0  0  0
  -17.8820  -17.5150   37.8650 H   0  0  0  0  0  0  0  0  0  0  0  0
  -16.1040  -14.9810   40.9710 H   0  0  0  0  0  0  0  0  0  0  0  0
  -13.9340  -14.9070   39.6680 H   0  0  0  0  0  0  0  0  0  0  0  0
  -12.9390  -13.8600   33.2840 N   0  0  0  0  0  0  0  0  0  0  0  0
  -12.0140  -14.9780   33.6610 C   0  0  0  0  0  0  0  0  0  0  0  0
  -11.0700  -15.5460   32.6430 O   0  0  0  0  0  0  0  0  0  0  0  0
  -13.5590  -13.4860   33.9520 H   0  0  0  0  0  0  0  0  0  0  0  0
  -12.9270  -13.4980   32.3690 H   0  0  0  0  0  0  0  0  0  0  0  0
   -9.4810  -15.9920   34.9080 N   0  0  0  0  0  0  0  0  0  0  0  0
   -9.4680  -15.6300   33.9930 H   0  0  0  0  0  0  0  0  0  0  0  0
   -8.6490  -16.3240   35.3170 H   0  0  0  0  0  0  0  0  0  0  0  0
  1  6  2  0
  1  2  1  0
  2  3  2  0
  3  4  1  0
  3 20  1  0
  4  8  1  0
  5  9  1  0
  5  4  2  0
  6  5  1  0
  7  2  1  0
  9 14  2  0
  9 10  1  0
 10 11  2  0
 11 12  1  0
 11 16  1  0
 12 17  1  0
 13 18  1  0
 13 12  2  0
 14 13  1  0
 15 10  1  0
 19 14  1  0
 20 25  1  0
 21 20  2  0
 21 22  1  0
 22 23  2  0
 23 24  1  0
 24 28  1  0
 25 29  1  0
 25 24  2  0
 26 21  1  0
 27 22  1  0
 30 31  1  0
 30 33  1  0
 31  1  1  0
 32 31  2  0
 34 30  1  0
 35 37  1  0
 35  6  1  0
 36 35  1  0
M  END
>  <minimizedAffinity>  (153) 
-9.00654697

$$$$

     RDKit          3D

 42 45  0  0  0  0  0  0  0  0999 V2000
  -14.1610  -16.0480   37.9540 C   0  0  0  0  0  0  0  0  0  0  0  0
  -14.6190  -15.0930   36.8930 C   0  0  0  0  0  0  0  0  0  0  0  0
  -13.7080  -14.7460   35.7520 C   0  0  0  0  0  0  0  0  0  0  0  0
  -12.3390  -15.3550   35.6740 C   0  0  0  0  0  0  0  0  0  0  0  0
  -11.8820  -16.3100   36.7360 C   0  0  0  0  0  0  0  0  0  0  0  0
  -10.5120  -16.9200   36.6570 Br  0  0  0  0  0  0  0  0  0  0  0  0
  -12.7920  -16.6570   37.8760 C   0  0  0  0  0  0  0  0  0  0  0  0
  -15.5600  -14.6740   36.9470 H   0  0  0  0  0  0  0  0  0  0  0  0
  -11.7120  -15.1160   34.8890 H   0  0  0  0  0  0  0  0  0  0  0  0
  -14.1650  -13.7900   34.6910 C   0  0  0  0  0  0  0  0  0  0  0  0
  -15.5550  -13.8950   34.1370 C   0  0  0  0  0  0  0  0  0  0  0  0
  -16.5940  -14.8970   34.5440 C   0  0  0  0  0  0  0  0  0  0  0  0
  -16.4250  -15.9720   35.5770 O   0  0  0  0  0  0  0  0  0  0  0  0
  -17.8320  -14.6370   33.7370 N   0  0  0  0  0  0  0  0  0  0  0  0
  -17.5570  -13.4730   32.8310 C   0  0  0  0  0  0  0  0  0  0  0  0
  -18.4070  -12.7720   31.8130 N   0  0  0  0  0  0  0  0  0  0  0  0
  -17.8500  -11.6120   31.0430 C   0  0  0  0  0  0  0  0  0  0  0  0
  -16.4440  -11.1530   31.2900 C   0  0  0  0  0  0  0  0  0  0  0  0
  -15.8870   -9.9930   30.5190 Br  0  0  0  0  0  0  0  0  0  0  0  0
  -15.5940  -11.8540   32.3070 C   0  0  0  0  0  0  0  0  0  0  0  0
  -16.1510  -13.0140   33.0780 C   0  0  0  0  0  0  0  0  0  0  0  0
  -13.5240  -13.0610   34.3420 H   0  0  0  0  0  0  0  0  0  0  0  0
  -18.6750  -15.1410   33.7930 H   0  0  0  0  0  0  0  0  0  0  0  0
  -18.4350  -11.1290   30.3420 H   0  0  0  0  0  0  0  0  0  0  0  0
  -14.6260  -11.5380   32.4770 H   0  0  0  0  0  0  0  0  0  0  0  0
  -14.7200  -15.9730   40.4900 C   0  0  0  0  0  0  0  0  0  0  0  0
  -15.6310  -16.3190   41.6310 C   0  0  0  0  0  0  0  0  0  0  0  0
  -16.8930  -17.0880   41.3750 C   0  0  0  0  0  0  0  0  0  0  0  0
  -17.2450  -17.5110   39.9790 C   0  0  0  0  0  0  0  0  0  0  0  0
  -16.3340  -17.1640   38.8400 C   0  0  0  0  0  0  0  0  0  0  0  0
  -15.0720  -16.3950   39.0950 C   0  0  0  0  0  0  0  0  0  0  0  0
  -15.3890  -16.0290   42.5910 H   0  0  0  0  0  0  0  0  0  0  0  0
  -17.5200  -17.3270   42.1600 H   0  0  0  0  0  0  0  0  0  0  0  0
  -18.1130  -18.0400   39.8040 H   0  0  0  0  0  0  0  0  0  0  0  0
  -16.5750  -17.4550   37.8790 H   0  0  0  0  0  0  0  0  0  0  0  0
  -13.4580  -15.2030   40.7460 O   0  0  0  0  0  0  0  0  0  0  0  0
  -13.3540  -14.3110   41.9470 C   0  0  0  0  0  0  0  0  0  0  0  0
  -14.1800  -14.2230   42.6220 H   0  0  0  0  0  0  0  0  0  0  0  0
  -12.4530  -13.7620   42.1290 H   0  0  0  0  0  0  0  0  0  0  0  0
  -13.2790  -13.6740   42.8030 H   0  0  0  0  0  0  0  0  0  0  0  0
  -12.3340  -17.6130   38.9370 O   0  0  0  0  0  0  0  0  0  0  0  0
  -11.4790  -17.9940   38.8890 H   0  0  0  0  0  0  0  0  0  0  0  0
  1 31  1  0
  2  8  1  0
  2  1  2  0
  3  2  1  0
  4  3  2  0
  4  5  1  0
  5  7  2  0
  6  5  1  0
  7  1  1  0
  7 41  1  0
  9  4  1  0
 10  3  1  0
 11 12  1  0
 11 10  2  0
 12 13  2  0
 14 23  1  0
 14 12  1  0
 15 21  1  0
 15 14  1  0
 16 15  2  0
 17 18  2  0
 17 16  1  0
 18 20  1  0
 19 18  1  0
 20 25  1  0
 20 21  2  0
 21 11  1  0
 22 10  1  0
 24 17  1  0
 26 36  1  0
 26 27  1  0
 27 32  1  0
 28 27  2  0
 28 33  1  0
 29 28  1  0
 30 31  1  0
 30 29  2  0
 31 26  2  0
 34 29  1  0
 35 30  1  0
 36 37  1  0
 37 39  1  0
 37 38  1  0
 37 40  1  0
 42 41  1  0
M  END
>  <minimizedAffinity>  (154) 
-8.30696869

$$$$

     RDKit          3D

 47 49  0  0  1  0  0  0  0  0999 V2000
  -12.8010  -16.1010   36.7050 C   0  0  0  0  0  3  0  0  0  0  0  0
  -11.9810  -15.2160   35.8140 C   0  0  0  0  0  0  0  0  0  0  0  0
  -12.6380  -14.4570   34.6990 C   0  0  0  0  0  0  0  0  0  0  0  0
  -14.1150  -14.5840   34.4750 C   0  0  0  0  0  0  0  0  0  0  0  0
  -14.9360  -15.4690   35.3650 C   0  0  0  0  0  0  0  0  0  0  0  0
  -14.2790  -16.2270   36.4810 C   0  0  0  0  0  0  0  0  0  0  0  0
  -15.1000  -17.1120   37.3710 Cl  0  0  0  0  0  0  0  0  0  0  0  0
  -10.9640  -15.1280   35.9680 H   0  0  0  0  0  0  0  0  0  0  0  0
  -12.0730  -13.8490   34.0860 H   0  0  0  0  0  0  0  0  0  0  0  0
  -15.9530  -15.5560   35.2110 H   0  0  0  0  0  0  0  0  0  0  0  0
  -14.7720  -13.8260   33.3600 N   0  0  0  0  0  0  0  0  0  0  0  0
  -16.2580  -13.6160   33.3690 C   0  0  0  0  0  3  0  0  0  0  0  0
  -17.0860  -14.1650   34.4920 N   0  0  0  0  0  0  0  0  0  0  0  0
  -18.5710  -13.9550   34.5010 C   0  0  0  0  0  0  0  0  0  0  0  0
  -19.2280  -13.1970   33.3860 N   0  0  0  0  0  2  0  0  0  0  0  0
  -18.4000  -12.6480   32.2620 C   0  0  0  0  0  0  0  0  0  0  0  0
  -18.7650  -11.8660   31.0360 C   0  0  0  0  0  0  0  0  0  0  0  0
  -17.5050  -11.5920   30.2680 C   0  0  0  0  0  0  0  0  0  0  0  0
  -16.3620  -12.2050   31.0210 S   0  0  0  0  0  0  0  0  0  0  0  0
  -16.9150  -12.8580   32.2530 C   0  0  0  0  0  0  0  0  0  0  0  0
  -14.2280  -13.4660   32.6220 H   0  0  0  0  0  0  0  0  0  0  0  0
  -19.1410  -14.3320   35.2750 H   0  0  0  0  0  0  0  0  0  0  0  0
  -19.7160  -11.5690   30.7670 H   0  0  0  0  0  0  0  0  0  0  0  0
  -17.4060  -10.8380   28.9760 C   0  0  0  0  0  0  0  0  0  0  0  0
  -18.5510  -10.2390   28.2150 C   0  0  0  0  0  0  0  0  0  0  0  0
  -17.9970   -9.5810   26.9860 C   0  0  0  0  0  0  0  0  0  0  0  0
  -16.5100   -9.7740   26.9870 C   0  0  0  0  0  0  0  0  0  0  0  0
  -16.1450  -10.5510   28.2170 N   0  0  0  0  0  0  0  0  0  0  0  0
  -19.5460  -10.2730   28.4890 H   0  0  0  0  0  0  0  0  0  0  0  0
  -18.5440   -9.0830   26.2660 H   0  0  0  0  0  0  0  0  0  0  0  0
  -15.8530   -9.4320   26.2680 H   0  0  0  0  0  0  0  0  0  0  0  0
  -15.2360  -10.8240   28.4800 H   0  0  0  0  0  0  0  0  0  0  0  0
  -12.1440  -16.8590   37.8200 O   0  0  0  0  0 15  0  0  0  0  0  0
  -11.0470  -17.8360   37.5180 C   0  0  0  0  0  3  0  0  0  0  0  0
  -11.2680  -18.7420   36.9920 H   0  0  0  0  0  0  0  0  0  0  0  0
  -12.0500  -18.0450   37.2080 H   0  0  0  0  0  0  0  0  0  0  0  0
   -7.0370  -14.5520   37.8730 F   0  0  0  0  0  0  0  0  0  0  0  0
   -7.6370  -15.9020   38.1300 C   0  0  0  0  0  0  0  0  0  0  0  0
   -6.8300  -16.9610   38.8220 C   0  0  0  0  0  0  0  0  0  0  0  0
   -7.4300  -18.3120   39.0790 C   0  0  0  0  0  0  0  0  0  0  0  0
   -8.8360  -18.6030   38.6450 C   0  0  0  0  0  0  0  0  0  0  0  0
   -9.6420  -17.5450   37.9530 C   0  0  0  0  0  0  0  0  0  0  0  0
   -9.0420  -16.1940   37.6950 C   0  0  0  0  0  0  0  0  0  0  0  0
   -5.8630  -16.7600   39.1210 H   0  0  0  0  0  0  0  0  0  0  0  0
   -6.8750  -19.0400   39.5560 H   0  0  0  0  0  0  0  0  0  0  0  0
   -9.2480  -19.5330   38.8220 H   0  0  0  0  0  0  0  0  0  0  0  0
   -9.5970  -15.4650   37.2190 H   0  0  0  0  0  0  0  0  0  0  0  0
  2  8  1  0
  2  1  2  0
  3  2  1  0
  4  3  2  0
  4  5  1  0
  5  6  2  0
  6  1  1  0
  6  7  1  0
  9  3  1  0
 10  5  1  0
 11  4  1  0
 12 11  1  0
 12 13  1  0
 13 14  2  0
 14 22  1  0
 15 14  1  0
 16 15  1  0
 17 16  1  0
 18 19  1  0
 18 17  2  0
 19 20  1  0
 20 16  2  0
 20 12  1  0
 21 11  1  0
 23 17  1  0
 24 18  1  0
 25 29  1  0
 25 24  2  0
 26 27  2  0
 26 25  1  0
 27 28  1  0
 28 32  1  0
 28 24  1  0
 30 26  1  0
 31 27  1  0
 34 42  1  0
 35 34  1  0
 36 34  1  0
 37 38  1  0
 38 39  1  0
 39 40  2  0
 39 44  1  0
 40 45  1  0
 41 46  1  0
 41 40  1  0
 42 41  2  0
 43 42  1  0
 43 38  2  0
 47 43  1  0
M  END
>  <minimizedAffinity>  (155) 
-9.51676464

$$$$

     RDKit          3D

 69 67  0  0  0  0  0  0  0  0999 V2000
  -13.6810  -16.9280   38.2970 C   0  0  0  0  0  0  0  0  0  0  0  0
  -14.2800  -17.6030   39.4950 C   0  0  0  0  0  0  0  0  0  0  0  0
  -15.7520  -17.4900   39.7610 C   0  0  0  0  0  0  0  0  0  0  0  0
  -16.6250  -16.7020   38.8300 C   0  0  0  0  0  0  0  0  0  0  0  0
  -18.0970  -16.5890   39.0960 N   0  0  0  0  0  0  0  0  0  0  0  0
  -18.9690  -15.8010   38.1640 C   0  0  0  0  0  0  0  0  0  0  0  0
  -18.3690  -15.1250   36.9670 N   0  0  0  0  0  0  0  0  0  0  0  0
  -16.8980  -15.2380   36.7000 C   0  0  0  0  0  0  0  0  0  0  0  0
  -16.2980  -14.5630   35.5030 N   0  0  0  0  0  0  0  0  0  0  0  0
  -16.0250  -16.0260   37.6320 C   0  0  0  0  0  0  0  0  0  0  0  0
  -14.5530  -16.1390   37.3660 C   0  0  0  0  0  0  0  0  0  0  0  0
  -13.6800  -18.1450   40.1360 H   0  0  0  0  0  0  0  0  0  0  0  0
  -16.1650  -17.9540   40.5850 H   0  0  0  0  0  0  0  0  0  0  0  0
  -19.9820  -15.7230   38.3480 H   0  0  0  0  0  0  0  0  0  0  0  0
  -15.3320  -14.6370   35.3270 H   0  0  0  0  0  0  0  0  0  0  0  0
  -14.1410  -15.6750   36.5410 H   0  0  0  0  0  0  0  0  0  0  0  0
  -17.1710  -13.7750   34.5710 C   0  0  0  0  0  0  0  0  0  0  0  0
  -18.1730  -12.8050   35.1230 C   0  0  0  0  0  0  0  0  0  0  0  0
  -19.0450  -12.0160   34.1910 C   0  0  0  0  0  0  0  0  0  0  0  0
  -18.9150  -12.1990   32.7080 C   0  0  0  0  0  0  0  0  0  0  0  0
  -17.9140  -13.1690   32.1560 C   0  0  0  0  0  0  0  0  0  0  0  0
  -17.0410  -13.9570   33.0880 C   0  0  0  0  0  0  0  0  0  0  0  0
  -18.2620  -12.6790   36.1430 H   0  0  0  0  0  0  0  0  0  0  0  0
  -19.7340  -11.3490   34.5710 H   0  0  0  0  0  0  0  0  0  0  0  0
  -16.3520  -14.6250   32.7080 H   0  0  0  0  0  0  0  0  0  0  0  0
  -17.7840  -13.3510   30.6730 C   0  0  0  0  0  0  0  0  0  0  0  0
  -17.6540  -13.5340   29.1900 F   0  0  0  0  0  0  0  0  0  0  0  0
  -19.1500  -13.9690   30.6300 F   0  0  0  0  0  0  0  0  0  0  0  0
  -16.4180  -12.7340   30.7170 F   0  0  0  0  0  0  0  0  0  0  0  0
  -19.7880  -11.4110   31.7760 O   0  0  0  0  0  0  0  0  0  0  0  0
  -19.3360  -10.0690   31.2800 C   0  0  0  0  0  0  0  0  0  0  0  0
  -19.9870   -9.2230   31.3570 H   0  0  0  0  0  0  0  0  0  0  0  0
  -19.0130   -9.1120   30.9260 H   0  0  0  0  0  0  0  0  0  0  0  0
  -17.9720   -9.9140   30.6760 C   0  0  0  0  0  0  0  0  0  0  0  0
  -16.7750   -9.7370   31.5630 C   0  0  0  0  0  0  0  0  0  0  0  0
  -15.4100   -9.5810   30.9590 C   0  0  0  0  0  0  0  0  0  0  0  0
  -15.2430   -9.6020   29.4690 C   0  0  0  0  0  0  0  0  0  0  0  0
  -16.4400   -9.7790   28.5820 C   0  0  0  0  0  0  0  0  0  0  0  0
  -16.2730   -9.8010   27.0920 F   0  0  0  0  0  0  0  0  0  0  0  0
  -17.8040   -9.9350   29.1860 C   0  0  0  0  0  0  0  0  0  0  0  0
  -16.8900   -9.7220   32.5890 H   0  0  0  0  0  0  0  0  0  0  0  0
  -14.5870   -9.4590   31.5690 H   0  0  0  0  0  0  0  0  0  0  0  0
  -14.3040   -9.4950   29.0530 H   0  0  0  0  0  0  0  0  0  0  0  0
  -18.6280  -10.0570   28.5760 H   0  0  0  0  0  0  0  0  0  0  0  0
   -9.9940  -16.6670   37.1110 C   0  0  0  0  0 15  0  0  0  0  0  0
   -9.8940  -17.7620   38.1310 C   0  0  0  0  0  2  0  0  0  0  0  0
  -11.2620  -17.9930   38.7000 C   0  0  0  0  0  0  0  0  0  0  0  0
  -12.2090  -17.0400   38.0310 C   0  0  0  0  0  0  0  0  0  0  0  0
  -11.4260  -16.2210   37.0490 O   0  0  0  0  0  1  0  0  0  0  0  0
   -9.0340  -18.2670   38.3950 H   0  0  0  0  0  0  0  0  0  0  0  0
  -11.5100  -18.6850   39.4240 H   0  0  0  0  0  0  0  0  0  0  0  0
   -8.8630  -16.1140   36.2960 C   0  0  0  0  0  2  0  0  0  0  0  0
   -8.0990  -15.5310   36.7660 H   0  0  0  0  0  0  0  0  0  0  0  0
   -8.9060  -15.9250   37.3480 H   0  0  0  0  0  0  0  0  0  0  0  0
   -8.8010  -16.3800   34.8200 N   0  0  0  0  0  1  0  0  0  0  0  0
   -7.9040  -16.3610   34.3360 H   0  0  0  0  0  0  0  0  0  0  0  0
  -10.0600  -16.6740   34.0590 C   0  0  0  0  0  2  0  0  0  0  0  0
  -10.4790  -17.6580   34.0760 H   0  0  0  0  0  0  0  0  0  0  0  0
   -9.5810  -17.4490   34.6190 H   0  0  0  0  0  0  0  0  0  0  0  0
  -10.7320  -15.5850   33.2750 C   0  0  0  0  0  3  0  0  0  0  0  0
  -10.2620  -15.1890   32.4000 H   0  0  0  0  0  0  0  0  0  0  0  0
   -9.7830  -15.9640   32.9590 H   0  0  0  0  0  0  0  0  0  0  0  0
  -12.0630  -15.0540   33.7180 S   0  0  2  0  0  0  0  0  0  0  0  0
  -12.7540  -16.0260   32.8100 O   0  0  0  0  0  0  0  0  0  0  0  0
  -11.3710  -14.0820   34.6270 O   0  0  0  0  0  0  0  0  0  0  0  0
  -13.3930  -14.5230   34.1630 C   0  0  0  0  0  0  0  0  0  0  0  0
  -13.4410  -13.7320   34.8830 H   0  0  0  0  0  0  0  0  0  0  0  0
  -14.2950  -14.9340   33.7600 H   0  0  0  0  0  0  0  0  0  0  0  0
  -14.3430  -14.1440   34.4800 H   0  0  0  0  0  0  0  0  0  0  0  0
  1  2  1  0
  2  3  2  0
  2 12  1  0
  3 13  1  0
  4  5  1  0
  4  3  1  0
  6 14  1  0
  6  5  2  0
  7  6  1  0
  8  7  2  0
  8 10  1  0
  9  8  1  0
 10  4  2  0
 11 10  1  0
 11  1  2  0
 15  9  1  0
 16 11  1  0
 17 18  1  0
 17  9  1  0
 18 23  1  0
 19 24  1  0
 19 18  2  0
 20 19  1  0
 21 20  2  0
 21 22  1  0
 22 17  2  0
 25 22  1  0
 26 29  1  0
 26 21  1  0
 27 26  1  0
 28 26  1  0
 30 20  1  0
 31 32  1  0
 31 30  1  0
 33 31  1  0
 34 31  1  0
 34 35  1  0
 35 41  1  0
 36 35  2  0
 36 42  1  0
 37 36  1  0
 38 40  1  0
 38 37  2  0
 39 38  1  0
 40 34  2  0
 43 37  1  0
 44 40  1  0
 46 50  1  0
 46 47  1  0
 47 51  1  0
 48  1  1  0
 48 47  2  0
 49 48  1  0
 52 53  1  0
 52 54  1  0
 56 55  1  0
 57 58  1  0
 57 59  1  0
 60 63  1  0
 61 60  1  0
 62 60  1  0
 63 66  1  0
 63 65  2  0
 64 63  2  0
 66 69  1  0
 66 67  1  0
 68 66  1  0
M  END
>  <minimizedAffinity>  (156) 
-7.75818443

$$$$

     RDKit          3D

 45 48  0  0  0  0  0  0  0  0999 V2000
  -11.5570  -15.4350   34.3860 C   0  0  0  0  0  0  0  0  0  0  0  0
  -10.3960  -15.8860   35.2210 C   0  0  0  0  0  0  0  0  0  0  0  0
  -10.6320  -16.4580   36.5880 C   0  0  0  0  0  0  0  0  0  0  0  0
  -12.0290  -16.5780   37.1200 C   0  0  0  0  0  0  0  0  0  0  0  0
  -13.1900  -16.1270   36.2850 C   0  0  0  0  0  0  0  0  0  0  0  0
  -12.9550  -15.5560   34.9180 C   0  0  0  0  0  0  0  0  0  0  0  0
   -9.4340  -15.8040   34.8560 H   0  0  0  0  0  0  0  0  0  0  0  0
  -12.1910  -16.9710   38.0600 H   0  0  0  0  0  0  0  0  0  0  0  0
   -9.4700  -16.9090   37.4230 C   0  0  0  0  0  0  0  0  0  0  0  0
   -8.4160  -15.9240   37.8350 C   0  0  0  0  0  0  0  0  0  0  0  0
   -7.2540  -16.3750   38.6700 C   0  0  0  0  0  0  0  0  0  0  0  0
   -7.1470  -17.8110   39.0930 C   0  0  0  0  0  0  0  0  0  0  0  0
   -8.2010  -18.7950   38.6810 C   0  0  0  0  0  0  0  0  0  0  0  0
   -9.3630  -18.3440   37.8460 N   0  0  0  0  0  0  0  0  0  0  0  0
   -8.4890  -14.9370   37.5440 H   0  0  0  0  0  0  0  0  0  0  0  0
   -6.5290  -15.6980   38.9540 H   0  0  0  0  0  0  0  0  0  0  0  0
   -6.3480  -18.1210   39.6680 H   0  0  0  0  0  0  0  0  0  0  0  0
   -8.1280  -19.7820   38.9730 H   0  0  0  0  0  0  0  0  0  0  0  0
  -11.3210  -14.8640   33.0190 C   0  0  0  0  0  0  0  0  0  0  0  0
  -10.3240  -14.7790   32.6400 H   0  0  0  0  0  0  0  0  0  0  0  0
  -12.1500  -14.5420   32.4240 H   0  0  0  0  0  0  0  0  0  0  0  0
  -11.1530  -14.4570   32.0440 H   0  0  0  0  0  0  0  0  0  0  0  0
  -14.5880  -16.2470   36.8170 C   0  0  0  0  0  0  0  0  0  0  0  0
  -15.4170  -15.9250   36.2210 H   0  0  0  0  0  0  0  0  0  0  0  0
  -14.7560  -16.6540   37.7910 H   0  0  0  0  0  0  0  0  0  0  0  0
  -15.5850  -16.3320   37.1960 H   0  0  0  0  0  0  0  0  0  0  0  0
  -14.1160  -15.1050   34.0830 C   0  0  0  0  0  0  0  0  0  0  0  0
  -14.5140  -13.6580   34.0700 C   0  0  0  0  0  0  0  0  0  0  0  0
  -14.6420  -15.7890   33.5170 H   0  0  0  0  0  0  0  0  0  0  0  0
  -13.9880  -12.9730   34.6360 H   0  0  0  0  0  0  0  0  0  0  0  0
  -15.6750  -13.2070   33.2350 C   0  0  0  0  0  0  0  0  0  0  0  0
  -17.0770  -13.5260   33.6650 C   0  0  0  0  0  0  0  0  0  0  0  0
  -18.2380  -13.0750   32.8300 N   0  0  0  0  0  0  0  0  0  0  0  0
  -17.9980  -12.3050   31.5650 C   0  0  0  0  0  0  0  0  0  0  0  0
  -16.5970  -11.9860   31.1350 C   0  0  0  0  0  0  0  0  0  0  0  0
  -15.4360  -12.4370   31.9700 C   0  0  0  0  0  0  0  0  0  0  0  0
  -17.2420  -14.0560   34.5350 H   0  0  0  0  0  0  0  0  0  0  0  0
  -18.7980  -11.9950   30.9900 H   0  0  0  0  0  0  0  0  0  0  0  0
  -14.4710  -12.2180   31.6740 H   0  0  0  0  0  0  0  0  0  0  0  0
  -16.3570  -11.2170   29.8700 C   0  0  0  0  0  0  0  0  0  0  0  0
  -16.9880  -11.4920   28.5370 N   0  0  0  0  0  0  0  0  0  0  0  0
  -16.4650  -10.4820   27.5590 N   0  0  0  0  0  2  0  0  0  0  0  0
  -15.5110   -9.5820   28.2880 N   0  0  0  0  0  0  0  0  0  0  0  0
  -15.4440  -10.0360   29.7160 N   0  0  0  0  0  2  0  0  0  0  0  0
  -15.0160   -8.8270   27.8970 H   0  0  0  0  0  0  0  0  0  0  0  0
  1  6  2  0
  1  2  1  0
  2  3  2  0
  3  4  1  0
  3  9  1  0
  4  8  1  0
  5 23  1  0
  5  4  2  0
  6  5  1  0
  7  2  1  0
  9 10  2  0
  9 14  1  0
 10 11  1  0
 11 16  1  0
 11 12  2  0
 12 17  1  0
 13 18  1  0
 13 12  1  0
 14 13  2  0
 15 10  1  0
 19  1  1  0
 20 19  1  0
 21 19  1  0
 22 19  1  0
 23 26  1  0
 23 25  1  0
 24 23  1  0
 27  6  1  0
 28 27  2  0
 28 30  1  0
 29 27  1  0
 31 32  1  0
 31 28  1  0
 32 37  1  0
 33 32  2  0
 34 33  1  0
 35 34  2  0
 35 36  1  0
 36 31  2  0
 38 34  1  0
 39 36  1  0
 40 35  1  0
 41 40  2  0
 42 43  1  0
 42 41  1  0
 43 44  1  0
 44 40  1  0
 45 43  1  0
M  END
>  <minimizedAffinity>  (157) 
-9.5240612

$$$$

     RDKit          3D

 61 61  0  0  0  0  0  0  0  0999 V2000
  -16.6700  -14.7990   35.0560 C   0  0  0  0  0  0  0  0  0  0  0  0
  -17.2470  -15.1140   36.4040 N   0  0  0  0  0  0  0  0  0  0  0  0
  -16.1450  -15.6570   37.2650 C   0  0  0  0  0  0  0  0  0  0  0  0
  -14.8870  -15.6760   36.4490 C   0  0  0  0  0  0  0  0  0  0  0  0
  -15.2120  -15.1460   35.0840 N   0  0  0  0  0  0  0  0  0  0  0  0
  -14.5780  -15.0440   34.3370 H   0  0  0  0  0  0  0  0  0  0  0  0
  -13.5400  -16.1440   36.9160 C   0  0  0  0  0  0  0  0  0  0  0  0
  -13.4290  -17.0110   38.1350 C   0  0  0  0  0  0  0  0  0  0  0  0
  -12.0820  -17.4790   38.6020 C   0  0  0  0  0  0  0  0  0  0  0  0
  -10.8470  -17.0800   37.8500 C   0  0  0  0  0  0  0  0  0  0  0  0
  -10.9590  -16.2130   36.6310 C   0  0  0  0  0  0  0  0  0  0  0  0
  -12.3050  -15.7450   36.1640 C   0  0  0  0  0  0  0  0  0  0  0  0
   -9.5760  -15.9820   36.0980 C   0  0  0  0  0  3  0  0  0  0  0  0
   -8.6090  -16.7070   36.9870 C   0  0  0  0  0  2  0  0  0  0  0  0
   -9.3950  -17.3850   38.0700 C   0  0  0  0  0  3  0  0  0  0  0  0
   -8.8280  -18.2220   39.1780 N   0  0  0  0  0  0  0  0  0  0  0  0
  -14.2780  -17.2860   38.6520 H   0  0  0  0  0  0  0  0  0  0  0  0
  -12.0050  -18.0760   39.4400 H   0  0  0  0  0  0  0  0  0  0  0  0
  -12.3820  -15.1480   35.3250 H   0  0  0  0  0  0  0  0  0  0  0  0
   -9.3230  -15.4030   35.2350 H   0  0  0  0  0  0  0  0  0  0  0  0
   -8.5380  -15.9130   35.8460 H   0  0  0  0  0  0  0  0  0  0  0  0
   -7.5460  -16.7350   36.8700 H   0  0  0  0  0  0  0  0  0  0  0  0
   -8.0560  -17.2710   37.7080 H   0  0  0  0  0  0  0  0  0  0  0  0
   -7.3470  -18.4410   39.2710 O   0  0  0  0  0  0  0  0  0  0  0  0
   -6.9930  -18.9640   39.9630 H   0  0  0  0  0  0  0  0  0  0  0  0
  -18.9210  -13.1070   31.5470 C   0  0  0  0  0  0  0  0  0  0  0  0
  -17.4970  -12.7010   31.7910 C   0  0  0  0  0  0  0  0  0  0  0  0
  -16.7470  -13.2650   32.9600 C   0  0  0  0  0  0  0  0  0  0  0  0
  -17.4200  -14.2350   33.8870 C   0  0  0  0  0  0  0  0  0  0  0  0
  -18.8440  -14.6400   33.6430 C   0  0  0  0  0  0  0  0  0  0  0  0
  -19.5940  -14.0750   32.4720 C   0  0  0  0  0  0  0  0  0  0  0  0
  -17.0340  -12.0350   31.1540 H   0  0  0  0  0  0  0  0  0  0  0  0
  -15.7680  -12.9860   33.1280 H   0  0  0  0  0  0  0  0  0  0  0  0
  -19.3070  -15.3060   34.2790 H   0  0  0  0  0  0  0  0  0  0  0  0
  -20.5740  -14.3540   32.3040 H   0  0  0  0  0  0  0  0  0  0  0  0
  -19.6710  -12.5430   30.3770 O   0  0  0  0  0  1  0  0  0  0  0  0
  -19.6290  -13.2420   29.0500 C   0  0  0  0  0  2  0  0  0  0  0  0
  -20.3230  -14.0280   28.8380 H   0  0  0  0  0  0  0  0  0  0  0  0
  -20.3540  -13.5300   29.7840 H   0  0  0  0  0  0  0  0  0  0  0  0
  -18.6140  -12.8400   28.0220 C   0  0  0  0  0  3  0  0  0  0  0  0
  -18.1850  -13.5780   27.3760 H   0  0  0  0  0  0  0  0  0  0  0  0
  -18.9100  -13.8640   28.1100 H   0  0  0  0  0  0  0  0  0  0  0  0
  -18.1990  -11.4030   27.9000 N   0  0  0  0  0  0  0  0  0  0  0  0
  -19.0560  -10.4380   27.1370 C   0  0  0  0  0  0  0  0  0  0  0  0
  -18.7600   -9.4130   27.0490 H   0  0  0  0  0  0  0  0  0  0  0  0
  -19.9640  -10.7730   26.6800 H   0  0  0  0  0  0  0  0  0  0  0  0
  -19.6680   -9.7480   26.5920 H   0  0  0  0  0  0  0  0  0  0  0  0
  -16.9260  -10.9330   28.5400 C   0  0  0  0  0  0  0  0  0  0  0  0
  -16.3150  -11.6210   29.0840 H   0  0  0  0  0  0  0  0  0  0  0  0
  -16.6310   -9.9080   28.4530 H   0  0  0  0  0  0  0  0  0  0  0  0
  -16.0190  -10.5970   28.9970 H   0  0  0  0  0  0  0  0  0  0  0  0
  -16.2780  -16.1020   38.6910 C   0  0  0  0  0  0  0  0  0  0  0  0
  -15.7190  -15.2560   39.7960 C   0  0  0  0  0  0  0  0  0  0  0  0
  -15.8510  -15.7000   41.2230 C   0  0  0  0  0  0  0  0  0  0  0  0
  -16.5430  -16.9920   41.5450 N   0  0  0  0  0  0  0  0  0  0  0  0
  -17.1030  -17.8380   40.4400 C   0  0  0  0  0  0  0  0  0  0  0  0
  -16.9700  -17.3940   39.0130 C   0  0  0  0  0  0  0  0  0  0  0  0
  -15.2420  -14.3670   39.5750 H   0  0  0  0  0  0  0  0  0  0  0  0
  -15.4660  -15.1170   41.9830 H   0  0  0  0  0  0  0  0  0  0  0  0
  -17.5790  -18.7260   40.6610 H   0  0  0  0  0  0  0  0  0  0  0  0
  -17.3550  -17.9760   38.2530 H   0  0  0  0  0  0  0  0  0  0  0  0
  1  5  1  0
  1  2  2  0
  2  3  1  0
  3 52  1  0
  4  7  1  0
  4  3  2  0
  5  4  1  0
  6  5  1  0
  7  8  1  0
  8  9  2  0
  8 17  1  0
  9 18  1  0
 10 15  1  0
 10  9  1  0
 11 10  2  0
 12 11  1  0
 12  7  2  0
 13 11  1  0
 14 23  1  0
 15 16  2  0
 16 24  1  0
 19 12  1  0
 20 13  1  0
 21 13  1  0
 22 14  1  0
 24 25  1  0
 26 27  2  0
 26 31  1  0
 27 28  1  0
 28 33  1  0
 28 29  2  0
 29  1  1  0
 30 29  1  0
 30 34  1  0
 31 30  2  0
 32 27  1  0
 35 31  1  0
 36 26  1  0
 37 39  1  0
 38 37  1  0
 40 42  1  0
 41 40  1  0
 43 40  1  0
 43 48  1  0
 44 43  1  0
 45 44  1  0
 46 44  1  0
 47 44  1  0
 48 51  1  0
 48 49  1  0
 50 48  1  0
 52 57  2  0
 52 53  1  0
 53 54  2  0
 54 55  1  0
 54 59  1  0
 56 60  1  0
 56 55  2  0
 57 56  1  0
 58 53  1  0
 61 57  1  0
M  END
>  <minimizedAffinity>  (158) 
-9.99803257

$$$$

     RDKit          3D

 65 65  0  0  1  0  0  0  0  0999 V2000
  -15.4760  -11.4980   32.0920 C   0  0  0  0  0  0  0  0  0  0  0  0
  -16.7160  -10.7880   32.5500 C   0  0  0  0  0  0  0  0  0  0  0  0
  -17.6360  -11.4460   33.5350 C   0  0  0  0  0  1  0  0  0  0  0  0
  -17.3160  -12.8140   34.0620 C   0  0  0  0  0  3  0  0  0  0  0  0
  -16.0770  -13.5240   33.6040 C   0  0  0  0  0  0  0  0  0  0  0  0
  -15.1570  -12.8660   32.6180 C   0  0  0  0  0  0  0  0  0  0  0  0
  -18.2360  -13.4720   35.0470 N   0  0  0  0  0  0  0  0  0  0  0  0
  -17.9170  -14.8390   35.5740 C   0  0  0  0  0  0  0  0  0  0  0  0
  -16.6780  -15.5490   35.1160 O   0  0  0  0  0  0  0  0  0  0  0  0
  -19.4760  -12.7620   35.5060 C   0  0  0  0  0  3  0  0  0  0  0  0
  -19.7950  -11.3940   34.9790 C   0  0  0  0  0  2  0  0  0  0  0  0
  -18.8750  -10.7360   33.9940 C   0  0  0  0  0  2  0  0  0  0  0  0
  -16.9350   -9.8470   32.1880 H   0  0  0  0  0  0  0  0  0  0  0  0
  -15.8570  -14.4650   33.9660 H   0  0  0  0  0  0  0  0  0  0  0  0
  -20.1320  -13.2310   36.2090 H   0  0  0  0  0  0  0  0  0  0  0  0
  -20.3600  -12.2560   35.8330 H   0  0  0  0  0  0  0  0  0  0  0  0
  -20.6790  -10.8880   35.3060 H   0  0  0  0  0  0  0  0  0  0  0  0
  -20.0230  -10.4190   34.6030 H   0  0  0  0  0  0  0  0  0  0  0  0
  -19.1030   -9.7610   33.6180 H   0  0  0  0  0  0  0  0  0  0  0  0
  -18.2180  -10.2670   33.2910 H   0  0  0  0  0  0  0  0  0  0  0  0
  -13.9180  -13.5760   32.1600 N   0  0  0  0  0  4  0  0  0  0  0  0
  -13.0440  -14.2790   33.1560 C   0  0  0  0  0  0  0  0  0  0  0  0
  -13.4100  -14.2720   34.6110 N   0  0  0  0  0  0  0  0  0  0  0  0
  -12.5360  -14.9750   35.6070 C   0  0  0  0  0  3  0  0  0  0  0  0
  -11.2970  -15.6850   35.1490 C   0  0  0  0  0  0  0  0  0  0  0  0
  -10.2500  -16.4590   35.8940 C   0  0  0  0  0  0  0  0  0  0  0  0
   -9.2360  -16.9440   34.9000 C   0  0  0  0  0  0  0  0  0  0  0  0
   -9.6580  -16.4700   33.5400 N   0  0  0  0  0  0  0  0  0  0  0  0
  -10.9310  -15.6920   33.6940 C   0  0  0  0  0  0  0  0  0  0  0  0
  -11.8050  -14.9890   32.6980 N   0  0  0  0  0  2  0  0  0  0  0  0
  -13.6780  -13.5800   31.2060 H   0  0  0  0  0  0  0  0  0  0  0  0
  -10.2290  -16.6280   36.9120 H   0  0  0  0  0  0  0  0  0  0  0  0
   -8.3970  -17.5050   35.1130 H   0  0  0  0  0  0  0  0  0  0  0  0
   -9.1820  -16.6390   32.6950 H   0  0  0  0  0  0  0  0  0  0  0  0
  -12.9020  -14.9680   37.0620 N   0  0  0  0  0  0  0  0  0  0  0  0
  -12.6270  -14.2170   37.6350 H   0  0  0  0  0  0  0  0  0  0  0  0
  -13.6870  -16.1060   37.6430 C   0  0  0  0  0  0  0  0  0  0  0  0
  -14.8600  -16.7870   37.0020 C   0  0  0  0  0  0  0  0  0  0  0  0
  -15.3340  -17.8650   37.9310 C   0  0  0  0  0  0  0  0  0  0  0  0
  -14.4550  -17.8510   39.1460 S   0  0  0  0  0  0  0  0  0  0  0  0
  -13.4370  -16.7640   38.9680 C   0  0  0  0  0  0  0  0  0  0  0  0
  -15.2680  -16.5540   36.0830 H   0  0  0  0  0  0  0  0  0  0  0  0
  -16.1270  -18.5050   37.7630 H   0  0  0  0  0  0  0  0  0  0  0  0
  -12.3580  -16.3980   39.9440 C   0  0  0  0  0  0  0  0  0  0  0  0
  -12.6930  -16.2020   41.3930 N   0  0  0  0  0  0  0  0  0  0  0  0
  -10.9450  -16.2290   39.4710 O   0  0  0  0  0  0  0  0  0  0  0  0
  -11.9850  -15.9620   42.0330 H   0  0  0  0  0  0  0  0  0  0  0  0
  -13.6210  -16.3130   41.7040 H   0  0  0  0  0  0  0  0  0  0  0  0
  -18.8370  -15.4970   36.5590 C   0  0  0  0  0  0  0  0  0  0  0  0
  -19.7090  -16.0130   36.2150 H   0  0  0  0  0  0  0  0  0  0  0  0
  -19.4940  -15.9670   37.2620 H   0  0  0  0  0  0  0  0  0  0  0  0
  -18.5350  -15.4320   38.0270 N   0  0  0  0  0  0  0  0  0  0  0  0
  -18.4710  -16.6930   38.8370 C   0  0  0  0  0  0  0  0  0  0  0  0
  -18.2550  -16.6460   39.8840 H   0  0  0  0  0  0  0  0  0  0  0  0
  -18.6410  -17.6400   38.3670 H   0  0  0  0  0  0  0  0  0  0  0  0
  -18.4250  -17.5930   39.4140 H   0  0  0  0  0  0  0  0  0  0  0  0
  -18.2970  -14.1050   38.6850 C   0  0  0  0  0  0  0  0  0  0  0  0
  -18.3420  -13.2050   38.1080 H   0  0  0  0  0  0  0  0  0  0  0  0
  -18.0810  -14.0580   39.7320 H   0  0  0  0  0  0  0  0  0  0  0  0
  -18.1270  -13.1580   39.1550 H   0  0  0  0  0  0  0  0  0  0  0  0
  -14.5560  -10.8400   31.1060 O   0  0  0  0  0  0  0  0  0  0  0  0
  -14.9850   -9.5880   30.4000 C   0  0  0  0  0  0  0  0  0  0  0  0
  -15.9460   -9.1650   30.5990 H   0  0  0  0  0  0  0  0  0  0  0  0
  -14.3280   -9.1190   29.6970 H   0  0  0  0  0  0  0  0  0  0  0  0
  -15.2910   -8.6950   29.8960 H   0  0  0  0  0  0  0  0  0  0  0  0
  1  2  2  0
  1  6  1  0
  2  3  1  0
  4  7  1  0
  5 14  1  0
  5  4  2  0
  6  5  1  0
  7 10  1  0
  7  8  1  0
  8 49  1  0
  9  8  2  0
 10 16  1  0
 10 15  1  0
 11 17  1  0
 13  2  1  0
 18 11  1  0
 19 12  1  0
 20 12  1  0
 21  6  2  0
 21 22  1  0
 22 23  2  0
 23 24  1  0
 24 35  1  0
 25 24  1  0
 25 26  1  0
 26 32  1  0
 27 33  1  0
 27 26  2  0
 28 29  1  0
 28 27  1  0
 29 25  2  0
 30 22  1  0
 30 29  1  0
 31 21  1  0
 34 28  1  0
 35 36  1  0
 35 37  1  0
 37 41  2  0
 38 37  1  0
 38 39  2  0
 39 40  1  0
 41 40  1  0
 41 44  1  0
 42 38  1  0
 43 39  1  0
 44 45  1  0
 45 48  1  0
 45 47  1  0
 46 44  2  0
 49 51  1  0
 49 52  1  0
 50 49  1  0
 52 57  1  0
 52 53  1  0
 53 56  1  0
 53 54  1  0
 55 53  1  0
 57 60  1  0
 57 59  1  0
 58 57  1  0
 61  1  1  0
 62 63  1  0
 62 61  1  0
 64 62  1  0
 65 62  1  0
M  END
>  <minimizedAffinity>  (159) 
-8.60861015

$$$$

     RDKit          3D

 54 57  0  0  0  0  0  0  0  0999 V2000
  -12.8770  -16.6480   37.6740 C   0  0  0  0  0  0  0  0  0  0  0  0
  -14.0360  -16.9420   38.5790 N   0  0  0  0  0  0  0  0  0  0  0  0
  -15.2920  -16.5250   37.8730 N   0  0  0  0  0  0  0  0  0  0  0  0
  -16.7360  -16.5760   38.2780 N   0  0  0  0  0  0  0  0  0  0  0  0
  -17.7960  -16.0760   37.3420 C   0  0  0  0  0  0  0  0  0  0  0  0
  -17.4130  -15.5240   36.0010 C   0  0  0  0  0  0  0  0  0  0  0  0
  -15.9700  -15.4730   35.5960 C   0  0  0  0  0  0  0  0  0  0  0  0
  -14.9100  -15.9730   36.5320 C   0  0  0  0  0  0  0  0  0  0  0  0
  -13.4160  -16.0500   36.4090 C   0  0  0  0  0  0  0  0  0  0  0  0
  -18.7890  -16.1110   37.6210 H   0  0  0  0  0  0  0  0  0  0  0  0
  -18.1420  -15.1800   35.3570 H   0  0  0  0  0  0  0  0  0  0  0  0
  -15.7060  -15.0940   34.6730 H   0  0  0  0  0  0  0  0  0  0  0  0
   -8.5410  -17.4250   38.5930 C   0  0  0  0  0  0  0  0  0  0  0  0
   -9.3260  -18.4160   37.7850 C   0  0  0  0  0  0  0  0  0  0  0  0
  -10.7710  -18.1570   37.4790 C   0  0  0  0  0  0  0  0  0  0  0  0
  -11.4320  -16.9070   37.9810 C   0  0  0  0  0  0  0  0  0  0  0  0
  -10.6470  -15.9160   38.7890 C   0  0  0  0  0  0  0  0  0  0  0  0
   -9.2020  -16.1760   39.0950 C   0  0  0  0  0  0  0  0  0  0  0  0
   -8.8710  -19.2760   37.4400 H   0  0  0  0  0  0  0  0  0  0  0  0
  -11.3100  -18.8390   36.9230 H   0  0  0  0  0  0  0  0  0  0  0  0
  -11.1020  -15.0570   39.1340 H   0  0  0  0  0  0  0  0  0  0  0  0
   -8.6620  -15.4940   39.6510 H   0  0  0  0  0  0  0  0  0  0  0  0
   -7.0950  -17.6840   38.9000 O   0  0  0  0  0  0  0  0  0  0  0  0
   -6.5180  -19.0520   38.6960 C   0  0  0  0  0  0  0  0  0  0  0  0
   -5.4870  -19.2370   38.9140 H   0  0  0  0  0  0  0  0  0  0  0  0
   -7.1370  -19.8450   38.3310 H   0  0  0  0  0  0  0  0  0  0  0  0
   -6.1060  -20.0290   38.5500 H   0  0  0  0  0  0  0  0  0  0  0  0
  -12.6050  -15.6050   35.2280 C   0  0  0  0  0  0  0  0  0  0  0  0
  -11.1470  -15.9490   35.1480 C   0  0  0  0  0  0  0  0  0  0  0  0
  -10.3360  -15.5050   33.9670 C   0  0  0  0  0  0  0  0  0  0  0  0
  -10.9830  -14.7170   32.8660 N   0  0  0  0  0  0  0  0  0  0  0  0
  -12.4410  -14.3730   32.9470 C   0  0  0  0  0  0  0  0  0  0  0  0
  -13.0870  -13.5850   31.8470 N   0  0  0  0  0  0  0  0  0  0  0  0
  -13.2520  -14.8170   34.1280 N   0  0  0  0  0  0  0  0  0  0  0  0
  -10.7020  -16.4910   35.9050 H   0  0  0  0  0  0  0  0  0  0  0  0
   -9.3330  -15.7410   33.9110 H   0  0  0  0  0  0  0  0  0  0  0  0
  -12.5550  -13.2930   31.0720 H   0  0  0  0  0  0  0  0  0  0  0  0
  -14.5450  -13.2410   31.9270 C   0  0  0  0  0  0  0  0  0  0  0  0
  -15.1270  -12.7370   33.2150 C   0  0  0  0  0  0  0  0  0  0  0  0
  -16.5840  -12.3930   33.2950 C   0  0  0  0  0  0  0  0  0  0  0  0
  -17.4610  -12.5540   32.0880 C   0  0  0  0  0  0  0  0  0  0  0  0
  -16.8790  -13.0580   30.8010 C   0  0  0  0  0  0  0  0  0  0  0  0
  -15.4210  -13.4020   30.7210 C   0  0  0  0  0  0  0  0  0  0  0  0
  -17.7550  -13.2190   29.5940 O   0  0  0  0  0  0  0  0  0  0  0  0
  -19.2130  -12.8750   29.6750 C   0  0  0  0  0  3  0  0  0  0  0  0
  -19.7950  -12.3710   30.9620 C   0  0  0  0  0  2  0  0  0  0  0  0
  -18.9190  -12.2100   32.1690 O   0  0  0  0  0  1  0  0  0  0  0  0
  -14.5230  -12.6260   34.0450 H   0  0  0  0  0  0  0  0  0  0  0  0
  -16.9850  -12.0460   34.1810 H   0  0  0  0  0  0  0  0  0  0  0  0
  -15.0210  -13.7490   29.8350 H   0  0  0  0  0  0  0  0  0  0  0  0
  -19.8390  -12.9900   28.8140 H   0  0  0  0  0  0  0  0  0  0  0  0
  -20.2540  -12.6300   29.7320 H   0  0  0  0  0  0  0  0  0  0  0  0
  -20.8350  -12.1260   31.0200 H   0  0  0  0  0  0  0  0  0  0  0  0
  -20.2100  -12.0110   31.8810 H   0  0  0  0  0  0  0  0  0  0  0  0
  1 16  1  0
  1  2  2  0
  3  4  1  0
  3  2  1  0
  5 10  1  0
  5  4  2  0
  6  5  1  0
  7  6  2  0
  7  8  1  0
  8  3  1  0
  9  8  2  0
  9  1  1  0
 11  6  1  0
 12  7  1  0
 13 23  1  0
 13 18  1  0
 14 13  2  0
 15 14  1  0
 15 16  2  0
 16 17  1  0
 17 18  2  0
 17 21  1  0
 18 22  1  0
 19 14  1  0
 20 15  1  0
 24 23  1  0
 24 25  1  0
 26 24  1  0
 27 24  1  0
 28  9  1  0
 29 28  1  0
 29 35  1  0
 30 29  2  0
 31 32  2  0
 31 30  1  0
 32 34  1  0
 33 38  1  0
 33 32  1  0
 34 28  2  0
 36 30  1  0
 37 33  1  0
 38 39  1  0
 39 40  2  0
 39 48  1  0
 40 49  1  0
 41 47  1  0
 41 40  1  0
 42 41  2  0
 43 42  1  0
 43 38  2  0
 44 45  1  0
 44 42  1  0
 45 52  1  0
 46 53  1  0
 46 54  1  0
 50 43  1  0
 51 45  1  0
M  END
>  <minimizedAffinity>  (160) 
-9.30703068

$$$$

     RDKit          3D

 63 58  0  0  1  0  0  0  0  0999 V2000
  -11.2420  -16.2650   36.3730 C   0  0  0  0  0  0  0  0  0  0  0  0
  -11.7120  -15.6560   35.0850 C   0  0  0  0  0  0  0  0  0  0  0  0
  -10.5500  -15.6210   34.1380 N   0  0  0  0  0  0  0  0  0  0  0  0
   -9.3620  -16.2090   34.8400 C   0  0  0  0  0  0  0  0  0  0  0  0
   -9.7890  -16.6070   36.2210 N   0  0  0  0  0  0  0  0  0  0  0  0
   -8.4160  -16.3200   34.4420 H   0  0  0  0  0  0  0  0  0  0  0  0
   -8.9180  -17.2360   37.2670 C   0  0  0  0  0  2  0  0  0  0  0  0
   -7.9750  -16.3880   38.0680 C   0  0  0  0  0  2  0  0  0  0  0  0
   -7.1040  -17.0180   39.1150 C   0  0  0  0  0  2  0  0  0  0  0  0
   -7.1760  -18.4950   39.3600 N   0  0  0  0  0  1  0  0  0  0  0  0
   -8.1190  -19.3440   38.5600 C   0  0  0  0  0  2  0  0  0  0  0  0
   -8.9900  -18.7140   37.5130 C   0  0  0  0  0  2  0  0  0  0  0  0
   -8.2970  -17.6860   38.0130 H   0  0  0  0  0  0  0  0  0  0  0  0
   -7.9240  -15.3340   37.8930 H   0  0  0  0  0  0  0  0  0  0  0  0
   -7.3020  -15.7830   38.6400 H   0  0  0  0  0  0  0  0  0  0  0  0
   -6.4320  -16.4130   39.6850 H   0  0  0  0  0  0  0  0  0  0  0  0
   -6.4830  -17.4670   39.8600 H   0  0  0  0  0  0  0  0  0  0  0  0
   -6.5840  -18.9240   40.0710 H   0  0  0  0  0  0  0  0  0  0  0  0
   -8.1710  -20.3980   38.7350 H   0  0  0  0  0  0  0  0  0  0  0  0
   -8.7920  -19.9490   37.9880 H   0  0  0  0  0  0  0  0  0  0  0  0
   -9.6630  -19.3190   36.9420 H   0  0  0  0  0  0  0  0  0  0  0  0
   -9.6120  -18.2640   36.7670 H   0  0  0  0  0  0  0  0  0  0  0  0
  -13.1010  -15.1670   34.7960 C   0  0  0  0  0  0  0  0  0  0  0  0
  -13.3050  -13.9570   33.9330 C   0  0  0  0  0  0  0  0  0  0  0  0
  -14.6940  -13.4690   33.6440 C   0  0  0  0  0  0  0  0  0  0  0  0
  -15.8770  -14.1890   34.2180 C   0  0  0  0  0  0  0  0  0  0  0  0
  -17.2660  -13.7000   33.9290 F   0  0  0  0  0  0  0  0  0  0  0  0
  -15.6730  -15.3990   35.0820 C   0  0  0  0  0  0  0  0  0  0  0  0
  -14.2840  -15.8870   35.3710 C   0  0  0  0  0  0  0  0  0  0  0  0
  -12.4910  -13.4620   33.5380 H   0  0  0  0  0  0  0  0  0  0  0  0
  -14.8340  -12.6370   33.0500 H   0  0  0  0  0  0  0  0  0  0  0  0
  -16.4870  -15.8940   35.4770 H   0  0  0  0  0  0  0  0  0  0  0  0
  -14.1440  -16.7190   35.9650 H   0  0  0  0  0  0  0  0  0  0  0  0
  -14.2180  -17.4520   38.7150 C   0  0  0  0  0  0  0  0  0  0  0  0
  -13.7500  -16.9470   40.0470 N   0  0  0  0  0  0  0  0  0  0  0  0
  -12.4460  -16.2140   40.1540 C   0  0  0  0  0  0  0  0  0  0  0  0
  -11.6100  -15.9860   38.9300 C   0  0  0  0  0  0  0  0  0  0  0  0
  -12.0780  -16.4920   37.5980 C   0  0  0  0  0  3  0  0  0  0  0  0
  -13.3830  -17.2250   37.4900 N   0  0  0  0  0  0  0  0  0  0  0  0
  -12.1240  -15.8660   41.0710 H   0  0  0  0  0  0  0  0  0  0  0  0
  -10.7130  -15.4820   39.0040 H   0  0  0  0  0  0  0  0  0  0  0  0
  -15.5230  -18.1850   38.6070 O   0  0  0  0  0  0  0  0  0  0  0  0
  -17.7090  -17.0260   39.3970 C   0  0  0  0  0  1  0  0  0  0  0  0
  -18.7700  -16.8250   40.4380 C   0  0  0  0  0  2  0  0  0  0  0  0
  -18.7060  -17.5840   41.7300 C   0  0  0  0  0  0  0  0  0  0  0  0
  -17.5810  -18.5440   41.9810 C   0  0  0  0  0  0  0  0  0  0  0  0
  -16.5200  -18.7440   40.9400 C   0  0  0  0  0  0  0  0  0  0  0  0
  -16.5840  -17.9850   39.6480 C   0  0  0  0  0  0  0  0  0  0  0  0
  -19.5450  -16.1650   40.2650 H   0  0  0  0  0  0  0  0  0  0  0  0
  -19.4360  -17.4460   42.4460 H   0  0  0  0  0  0  0  0  0  0  0  0
  -17.5360  -19.0660   42.8700 H   0  0  0  0  0  0  0  0  0  0  0  0
  -15.7450  -19.4040   41.1130 H   0  0  0  0  0  0  0  0  0  0  0  0
  -17.7730  -16.2670   38.1050 C   0  0  0  0  0  2  0  0  0  0  0  0
  -18.1950  -16.7260   37.2350 H   0  0  0  0  0  0  0  0  0  0  0  0
  -18.1490  -17.2670   38.1560 H   0  0  0  0  0  0  0  0  0  0  0  0
  -17.2470  -14.8640   38.0320 C   0  0  0  0  0  3  0  0  0  0  0  0
  -16.2000  -14.6920   37.8890 H   0  0  0  0  0  0  0  0  0  0  0  0
  -16.5760  -15.6930   37.9410 H   0  0  0  0  0  0  0  0  0  0  0  0
  -18.6380  -12.9640   36.9340 N   0  0  0  0  0  0  0  0  0  0  0  0
  -18.1870  -13.7020   38.1600 C   0  0  0  0  0  0  0  0  0  0  0  0
  -18.6770  -13.2790   39.5130 O   0  0  0  0  0  0  0  0  0  0  0  0
  -18.3160  -13.2410   36.0460 H   0  0  0  0  0  0  0  0  0  0  0  0
  -19.2540  -12.2020   37.0180 H   0  0  0  0  0  0  0  0  0  0  0  0
  2  1  2  0
  3  4  2  0
  3  2  1  0
  4  5  1  0
  5  1  1  0
  5  7  1  0
  6  4  1  0
  7 13  1  0
  8 15  1  0
  9 16  1  0
  9 17  1  0
 10 18  1  0
 11 19  1  0
 14  8  1  0
 20 11  1  0
 21 12  1  0
 22 12  1  0
 23  2  1  0
 23 29  1  0
 24 23  2  0
 25 24  1  0
 25 26  2  0
 26 28  1  0
 27 26  1  0
 28 29  2  0
 28 32  1  0
 29 33  1  0
 30 24  1  0
 31 25  1  0
 34 35  2  0
 35 36  1  0
 36 40  1  0
 37 41  1  0
 37 36  2  0
 38  1  1  0
 38 37  1  0
 39 38  1  0
 39 34  2  0
 42 34  1  0
 42 48  1  0
 43 48  1  0
 44 45  1  0
 45 46  2  0
 45 50  1  0
 46 51  1  0
 47 52  1  0
 47 46  1  0
 48 47  2  0
 49 44  1  0
 53 55  1  0
 54 53  1  0
 56 60  1  0
 57 56  1  0
 58 56  1  0
 59 63  1  0
 59 60  1  0
 60 61  2  0
 62 59  1  0
M  END
>  <minimizedAffinity>  (161) 
-10.1993647

$$$$

     RDKit          3D

 55 48  0  0  0  0  0  0  0  0999 V2000
  -14.5480  -16.1110   36.6690 N   0  0  0  0  0 15  0  0  0  0  0  0
  -15.9550  -15.7120   36.3330 C   0  0  0  0  0  2  0  0  0  0  0  0
  -15.9160  -14.8680   35.0940 N   0  0  0  0  0  2  0  0  0  0  0  0
  -14.4840  -14.7450   34.6630 C   0  0  0  0  0  0  0  0  0  0  0  0
  -13.8400  -14.0330   33.5100 C   0  0  0  0  0  0  0  0  0  0  0  0
  -12.3520  -14.0890   33.3300 N   0  0  0  0  0  0  0  0  0  0  0  0
  -11.5080  -14.8580   34.3030 C   0  0  0  0  0  0  0  0  0  0  0  0
  -12.1510  -15.5700   35.4550 C   0  0  0  0  0  0  0  0  0  0  0  0
  -13.6390  -15.5140   35.6360 C   0  0  0  0  0  3  0  0  0  0  0  0
  -10.4840  -14.8970   34.1790 H   0  0  0  0  0  0  0  0  0  0  0  0
  -17.1850  -16.0900   37.1030 C   0  0  0  0  0  0  0  0  0  0  0  0
  -17.2810  -17.1740   38.1370 N   0  0  0  0  0  0  0  0  0  0  0  0
  -18.6920  -17.2050   38.6470 O   0  0  0  0  0  0  0  0  0  0  0  0
  -19.4680  -16.1420   37.9280 N   0  0  0  0  0  0  0  0  0  0  0  0
  -18.5380  -15.4530   36.9740 C   0  0  0  0  0  0  0  0  0  0  0  0
  -18.8960  -14.3250   36.0530 N   0  0  0  0  0  0  0  0  0  0  0  0
  -18.2120  -13.9360   35.4610 H   0  0  0  0  0  0  0  0  0  0  0  0
  -19.8150  -13.9720   36.0400 H   0  0  0  0  0  0  0  0  0  0  0  0
  -14.1250  -16.9590   37.8310 C   0  0  0  0  0  3  0  0  0  0  0  0
  -14.0970  -18.0250   37.7340 H   0  0  0  0  0  0  0  0  0  0  0  0
  -14.3990  -17.4190   36.9050 H   0  0  0  0  0  0  0  0  0  0  0  0
  -13.7410  -16.3140   39.1290 C   0  0  0  0  0  0  0  0  0  0  0  0
  -13.7700  -15.2490   39.2260 H   0  0  0  0  0  0  0  0  0  0  0  0
  -13.4400  -16.9180   39.9580 H   0  0  0  0  0  0  0  0  0  0  0  0
  -13.4680  -15.8540   40.0560 H   0  0  0  0  0  0  0  0  0  0  0  0
  -14.6850  -13.2650   32.5370 C   0  0  0  0  0  0  0  0  0  0  0  0
  -15.5300  -12.4960   31.5650 C   0  0  0  0  0  0  0  0  0  0  0  0
  -16.3740  -11.7280   30.5920 C   0  0  0  0  0  0  0  0  0  0  0  0
  -17.0240  -13.0050   30.1480 C   0  0  0  0  0  0  0  0  0  0  0  0
  -16.7340  -13.9350   30.5910 H   0  0  0  0  0  0  0  0  0  0  0  0
  -17.7780  -12.9850   29.3890 H   0  0  0  0  0  0  0  0  0  0  0  0
  -17.4880  -13.9150   29.8310 H   0  0  0  0  0  0  0  0  0  0  0  0
  -15.7240  -10.4510   31.0360 C   0  0  0  0  0  0  0  0  0  0  0  0
  -16.0140   -9.5210   30.5940 H   0  0  0  0  0  0  0  0  0  0  0  0
  -14.9700  -10.4710   31.7960 H   0  0  0  0  0  0  0  0  0  0  0  0
  -15.2600   -9.5400   31.3530 H   0  0  0  0  0  0  0  0  0  0  0  0
  -17.2190  -10.9590   29.6200 O   0  0  0  0  0  0  0  0  0  0  0  0
  -17.8560  -11.4260   29.0560 H   0  0  0  0  0  0  0  0  0  0  0  0
  -11.3060  -16.3380   36.4280 O   0  0  0  0  0  1  0  0  0  0  0  0
   -9.8420  -16.0370   36.5520 C   0  0  0  0  0  2  0  0  0  0  0  0
   -9.4300  -15.1770   36.0660 H   0  0  0  0  0  0  0  0  0  0  0  0
   -8.7980  -15.8210   36.6400 H   0  0  0  0  0  0  0  0  0  0  0  0
   -8.9560  -16.9400   37.3570 C   0  0  0  0  0  1  0  0  0  0  0  0
   -7.9750  -16.5070   38.4060 C   0  0  0  0  0  2  0  0  0  0  0  0
   -7.3070  -17.7330   38.9520 C   0  0  0  0  0  2  0  0  0  0  0  0
   -7.8760  -18.9250   38.2410 C   0  0  0  0  0  2  0  0  0  0  0  0
   -8.8940  -18.4350   37.2550 N   0  0  0  0  0  1  0  0  0  0  0  0
   -8.8820  -15.8900   37.5480 H   0  0  0  0  0  0  0  0  0  0  0  0
   -7.7850  -15.4980   38.7110 H   0  0  0  0  0  0  0  0  0  0  0  0
   -7.2410  -16.3600   39.1700 H   0  0  0  0  0  0  0  0  0  0  0  0
   -6.5570  -17.7540   39.7150 H   0  0  0  0  0  0  0  0  0  0  0  0
   -6.9280  -18.6940   39.2340 H   0  0  0  0  0  0  0  0  0  0  0  0
   -7.6020  -19.9460   38.4070 H   0  0  0  0  0  0  0  0  0  0  0  0
   -8.3750  -19.6650   37.6500 H   0  0  0  0  0  0  0  0  0  0  0  0
   -9.4480  -19.0170   36.6260 H   0  0  0  0  0  0  0  0  0  0  0  0
  2 11  1  0
  3  2  1  0
  4  3  1  0
  4  9  1  0
  5  4  2  0
  6  5  1  0
  6  7  2  0
  7  8  1  0
  8  9  2  0
  8 39  1  0
 10  7  1  0
 11 12  2  0
 12 13  1  0
 14 13  1  0
 15 11  1  0
 15 14  2  0
 16 15  1  0
 17 16  1  0
 18 16  1  0
 19 22  1  0
 20 19  1  0
 21 19  1  0
 22 23  1  0
 22 24  1  0
 22 25  1  0
 26  5  1  0
 27 26  3  0
 28 33  1  0
 28 27  1  0
 29 30  1  0
 29 28  1  0
 31 29  1  0
 32 29  1  0
 33 36  1  0
 33 35  1  0
 34 33  1  0
 37 28  1  0
 38 37  1  0
 40 42  1  0
 41 40  1  0
 43 48  1  0
 44 49  1  0
 44 50  1  0
 45 52  1  0
 45 51  1  0
 46 53  1  0
 54 46  1  0
 55 47  1  0
M  END
>  <minimizedAffinity>  (162) 
-10.1602049

$$$$

     RDKit          3D

 64 62  0  0  0  0  0  0  0  0999 V2000
  -14.9660  -13.2900   32.9390 C   0  0  0  0  0  0  0  0  0  0  0  0
  -14.6110  -12.2660   31.9010 C   0  0  0  0  0  0  0  0  0  0  0  0
  -15.8860  -11.7810   31.2750 C   0  0  0  0  0  0  0  0  0  0  0  0
  -16.1540  -10.7730   30.1970 N   0  0  0  0  0  0  0  0  0  0  0  0
  -17.5630  -10.4900   29.7690 C   0  0  0  0  0  0  0  0  0  0  0  0
  -18.7050  -11.2150   30.4190 N   0  0  0  0  0  0  0  0  0  0  0  0
  -18.4370  -12.2220   31.4970 C   0  0  0  0  0  0  0  0  0  0  0  0
  -17.0270  -12.5050   31.9250 C   0  0  0  0  0  0  0  0  0  0  0  0
  -16.4590  -13.4380   32.9540 S   0  0  0  0  0  0  0  0  0  0  0  0
  -13.6590  -11.9510   31.6610 H   0  0  0  0  0  0  0  0  0  0  0  0
  -17.7480   -9.7970   29.0270 H   0  0  0  0  0  0  0  0  0  0  0  0
  -13.0290  -14.7800   34.6780 C   0  0  0  0  0  1  0  0  0  0  0  0
  -13.9980  -14.0350   33.8080 C   0  0  0  0  0  2  0  0  0  0  0  0
  -10.0390  -16.5950   36.3620 C   0  0  0  0  0  1  0  0  0  0  0  0
  -11.1000  -16.7510   37.4110 C   0  0  0  0  0  2  0  0  0  0  0  0
  -12.3500  -16.0900   36.9080 N   0  0  0  0  0  1  0  0  0  0  0  0
  -12.0600  -15.5260   35.5480 C   0  0  0  0  0  2  0  0  0  0  0  0
  -10.6320  -15.8380   35.2110 C   0  0  0  0  0  3  0  0  0  0  0  0
   -9.7670  -17.1190   37.2550 H   0  0  0  0  0  0  0  0  0  0  0  0
  -10.9870  -17.2460   38.3520 H   0  0  0  0  0  0  0  0  0  0  0  0
  -11.9560  -16.7770   38.0520 H   0  0  0  0  0  0  0  0  0  0  0  0
  -13.2400  -16.0340   37.4030 H   0  0  0  0  0  0  0  0  0  0  0  0
  -13.0480  -15.3840   35.9330 H   0  0  0  0  0  0  0  0  0  0  0  0
  -10.1260  -15.5680   34.3080 H   0  0  0  0  0  0  0  0  0  0  0  0
   -9.6080  -16.1350   35.1210 H   0  0  0  0  0  0  0  0  0  0  0  0
   -8.6310  -17.1060   36.4490 O   0  0  0  0  0  0  0  0  0  0  0  0
   -7.4580  -17.8790   38.6350 N   0  0  0  0  0  0  0  0  0  0  0  0
   -7.7930  -16.7940   37.6530 C   0  0  0  0  0  0  0  0  0  0  0  0
   -7.2890  -15.3990   37.8760 O   0  0  0  0  0  1  0  0  0  0  0  0
   -6.6200  -17.5670   39.8390 C   0  0  0  0  0  0  0  0  0  0  0  0
   -6.2610  -16.5720   39.9980 H   0  0  0  0  0  0  0  0  0  0  0  0
   -6.3810  -18.3400   40.5390 H   0  0  0  0  0  0  0  0  0  0  0  0
   -6.0220  -17.3450   40.6980 H   0  0  0  0  0  0  0  0  0  0  0  0
   -7.9620  -19.2740   38.4120 C   0  0  0  0  0  0  0  0  0  0  0  0
   -7.7230  -20.0470   39.1120 H   0  0  0  0  0  0  0  0  0  0  0  0
   -8.5600  -19.4960   37.5530 H   0  0  0  0  0  0  0  0  0  0  0  0
   -8.3210  -20.2690   38.2530 H   0  0  0  0  0  0  0  0  0  0  0  0
  -19.5780  -12.9460   32.1480 N   0  0  0  0  0  0  0  0  0  0  0  0
  -20.3550  -13.2220   31.6100 H   0  0  0  0  0  0  0  0  0  0  0  0
  -19.5340  -13.2500   33.6160 C   0  0  0  0  0  0  0  0  0  0  0  0
  -19.5870  -14.6730   34.0890 C   0  0  0  0  0  0  0  0  0  0  0  0
  -19.5430  -14.9760   35.5580 C   0  0  0  0  0  0  0  0  0  0  0  0
  -19.4470  -13.8580   36.5520 C   0  0  0  0  0  0  0  0  0  0  0  0
  -19.3940  -12.4350   36.0790 C   0  0  0  0  0  0  0  0  0  0  0  0
  -19.2980  -11.3170   37.0740 Cl  0  0  0  0  0  0  0  0  0  0  0  0
  -19.4380  -12.1320   34.6110 C   0  0  0  0  0  0  0  0  0  0  0  0
  -19.6530  -15.4420   33.4050 H   0  0  0  0  0  0  0  0  0  0  0  0
  -19.5800  -15.9550   35.8840 H   0  0  0  0  0  0  0  0  0  0  0  0
  -19.4020  -11.1530   34.2850 H   0  0  0  0  0  0  0  0  0  0  0  0
  -19.4030  -14.1610   38.0210 O   0  0  0  0  0  0  0  0  0  0  0  0
  -19.0650  -15.5450   38.4910 C   0  0  0  0  0  0  0  0  0  0  0  0
  -19.8300  -16.2920   38.5500 H   0  0  0  0  0  0  0  0  0  0  0  0
  -18.8240  -16.5330   38.8260 H   0  0  0  0  0  0  0  0  0  0  0  0
  -17.6560  -15.8830   38.8780 C   0  0  0  0  0  0  0  0  0  0  0  0
  -17.0200  -15.2080   40.0570 C   0  0  0  0  0  0  0  0  0  0  0  0
  -15.6110  -15.5460   40.4440 C   0  0  0  0  0  0  0  0  0  0  0  0
  -14.8380  -16.5570   39.6520 C   0  0  0  0  0  0  0  0  0  0  0  0
  -15.4730  -17.2320   38.4730 C   0  0  0  0  0  0  0  0  0  0  0  0
  -14.7000  -18.2440   37.6800 F   0  0  0  0  0  0  0  0  0  0  0  0
  -16.8820  -16.8940   38.0850 C   0  0  0  0  0  0  0  0  0  0  0  0
  -17.5530  -14.5120   40.6020 H   0  0  0  0  0  0  0  0  0  0  0  0
  -15.1740  -15.0820   41.2560 H   0  0  0  0  0  0  0  0  0  0  0  0
  -13.8680  -16.7900   39.9190 H   0  0  0  0  0  0  0  0  0  0  0  0
  -17.3200  -17.3590   37.2740 H   0  0  0  0  0  0  0  0  0  0  0  0
  1  9  1  0
  1 13  1  0
  2  1  2  0
  3  2  1  0
  3  8  2  0
  4  3  1  0
  5  4  2  0
  5  6  1  0
  6  7  2  0
  7  8  1  0
  7 38  1  0
  8  9  1  0
 10  2  1  0
 11  5  1  0
 13 12  1  0
 14 19  1  0
 15 21  1  0
 15 20  1  0
 16 22  1  0
 17 23  1  0
 18 17  1  0
 24 18  1  0
 25 18  1  0
 26 28  2  0
 27 30  1  0
 28 29  1  0
 28 27  1  0
 30 31  1  0
 30 32  1  0
 30 33  1  0
 34 27  1  0
 34 35  1  0
 36 34  1  0
 37 34  1  0
 38 40  1  0
 39 38  1  0
 40 41  2  0
 40 46  1  0
 41 42  1  0
 42 48  1  0
 42 43  2  0
 43 50  1  0
 44 43  1  0
 44 45  1  0
 46 44  2  0
 47 41  1  0
 49 46  1  0
 50 51  1  0
 51 52  1  0
 51 53  1  0
 51 54  1  0
 54 55  1  0
 55 56  2  0
 55 61  1  0
 56 62  1  0
 57 63  1  0
 57 56  1  0
 58 57  2  0
 59 58  1  0
 60 58  1  0
 60 54  2  0
 64 60  1  0
M  END
>  <minimizedAffinity>  (163) 
-10.7540846

$$$$

     RDKit          3D

 42 41  0  0  0  0  0  0  0  0999 V2000
  -11.7370  -16.5150   37.5280 N   0  0  0  0  0 15  0  0  0  0  0  0
  -10.2820  -16.4970   37.1650 C   0  0  0  0  0  2  0  0  0  0  0  0
  -10.1480  -15.8600   35.8130 N   0  0  0  0  0  2  0  0  0  0  0  0
  -11.5220  -15.4850   35.3400 C   0  0  0  0  0  0  0  0  0  0  0  0
  -12.0050  -14.8270   34.0820 C   0  0  0  0  0  0  0  0  0  0  0  0
  -13.4700  -14.5730   33.8830 N   0  0  0  0  0  0  0  0  0  0  0  0
  -14.4520  -14.9780   34.9430 C   0  0  0  0  0  0  0  0  0  0  0  0
  -13.9690  -15.6350   36.2010 C   0  0  0  0  0  0  0  0  0  0  0  0
  -12.5040  -15.8890   36.4000 C   0  0  0  0  0  3  0  0  0  0  0  0
  -11.3300  -14.5480   33.3530 H   0  0  0  0  0  0  0  0  0  0  0  0
  -15.4600  -14.8030   34.8060 H   0  0  0  0  0  0  0  0  0  0  0  0
   -9.1570  -17.0230   38.0060 C   0  0  0  0  0  0  0  0  0  0  0  0
   -9.1870  -18.2710   38.8380 N   0  0  0  0  0  0  0  0  0  0  0  0
   -7.8530  -18.4130   39.5090 O   0  0  0  0  0  0  0  0  0  0  0  0
   -6.9980  -17.2530   39.0920 N   0  0  0  0  0  0  0  0  0  0  0  0
   -7.8040  -16.3930   38.1630 C   0  0  0  0  0  0  0  0  0  0  0  0
   -7.3390  -15.1280   37.5070 N   0  0  0  0  0  0  0  0  0  0  0  0
   -7.9440  -14.6320   36.9100 H   0  0  0  0  0  0  0  0  0  0  0  0
   -6.4280  -14.7930   37.6720 H   0  0  0  0  0  0  0  0  0  0  0  0
  -14.9500  -16.0400   37.2610 C   0  0  0  0  0  0  0  0  0  0  0  0
  -15.5460  -17.4160   37.2450 O   0  0  0  0  0  0  0  0  0  0  0  0
  -15.3360  -15.0680   38.3360 N   0  0  0  0  0  0  0  0  0  0  0  0
  -14.9450  -14.1640   38.3470 H   0  0  0  0  0  0  0  0  0  0  0  0
  -16.3170  -15.4720   39.3960 C   0  0  0  0  0  0  0  0  0  0  0  0
  -17.3520  -15.2170   39.2930 H   0  0  0  0  0  0  0  0  0  0  0  0
  -17.0180  -15.7610   40.1520 H   0  0  0  0  0  0  0  0  0  0  0  0
  -15.8500  -16.2350   40.6000 C   0  0  0  0  0  0  0  0  0  0  0  0
  -15.6910  -15.7260   41.5280 H   0  0  0  0  0  0  0  0  0  0  0  0
  -15.5160  -16.7790   41.4590 H   0  0  0  0  0  0  0  0  0  0  0  0
  -15.6040  -17.7120   40.5040 N   0  0  0  0  0  0  0  0  0  0  0  0
  -14.8480  -18.0660   39.9180 H   0  0  0  0  0  0  0  0  0  0  0  0
  -16.4710  -18.6670   41.2690 C   0  0  0  0  0  0  0  0  0  0  0  0
  -17.2640  -18.2960   41.8840 H   0  0  0  0  0  0  0  0  0  0  0  0
  -16.2960  -19.7210   41.2000 H   0  0  0  0  0  0  0  0  0  0  0  0
  -17.0890  -19.3490   41.8150 H   0  0  0  0  0  0  0  0  0  0  0  0
  -12.3230  -17.0620   38.7950 C   0  0  0  0  0  3  0  0  0  0  0  0
  -12.7960  -18.0220   38.7950 H   0  0  0  0  0  0  0  0  0  0  0  0
  -12.3770  -17.6310   37.8910 H   0  0  0  0  0  0  0  0  0  0  0  0
  -12.2480  -16.2640   40.0630 C   0  0  0  0  0  0  0  0  0  0  0  0
  -11.7750  -15.3030   40.0620 H   0  0  0  0  0  0  0  0  0  0  0  0
  -12.6660  -16.6540   40.9660 H   0  0  0  0  0  0  0  0  0  0  0  0
  -12.1940  -15.6940   40.9670 H   0  0  0  0  0  0  0  0  0  0  0  0
  2 12  1  0
  3  2  1  0
  4  3  1  0
  4  9  1  0
  5  4  2  0
  6  5  1  0
  6  7  2  0
  7  8  1  0
  8  9  2  0
  8 20  1  0
 10  5  1  0
 11  7  1  0
 12 16  1  0
 12 13  2  0
 13 14  1  0
 15 14  1  0
 16 15  2  0
 17 19  1  0
 17 16  1  0
 18 17  1  0
 20 22  1  0
 21 20  2  0
 22 23  1  0
 22 24  1  0
 24 26  1  0
 24 27  1  0
 25 24  1  0
 27 29  1  0
 27 28  1  0
 30 27  1  0
 30 32  1  0
 31 30  1  0
 32 35  1  0
 32 33  1  0
 34 32  1  0
 36 39  1  0
 37 36  1  0
 38 36  1  0
 39 41  1  0
 39 42  1  0
 40 39  1  0
M  END
>  <minimizedAffinity>  (164) 
-8.95124817

$$$$

     RDKit          3D

 51 52  0  0  0  0  0  0  0  0999 V2000
  -17.1110  -15.9710   36.6600 C   0  0  0  0  0  0  0  0  0  0  0  0
  -15.7200  -16.5020   36.4860 C   0  0  0  0  0  0  0  0  0  0  0  0
  -15.3220  -17.1850   37.7610 C   0  0  0  0  0  3  0  0  0  0  0  0
  -16.4670  -17.0750   38.7230 C   0  0  0  0  0  0  0  0  0  0  0  0
  -17.5740  -16.3240   38.0420 S   0  0  0  0  0  0  0  0  0  0  0  0
  -15.1390  -16.4140   35.6380 H   0  0  0  0  0  0  0  0  0  0  0  0
  -16.8060  -12.6730   32.1140 C   0  0  0  0  0  0  0  0  0  0  0  0
  -18.2170  -12.9630   32.5320 C   0  0  0  0  0  0  0  0  0  0  0  0
  -18.4820  -13.8290   33.7270 C   0  0  0  0  0  0  0  0  0  0  0  0
  -19.7570  -14.2860   34.3730 N   0  0  0  0  0  0  0  0  0  0  0  0
  -19.3980  -15.1440   35.5510 C   0  0  0  0  0  0  0  0  0  0  0  0
  -17.9030  -15.2170   35.6320 N   0  0  0  0  0  0  0  0  0  0  0  0
  -17.3370  -14.4040   34.5060 C   0  0  0  0  0  0  0  0  0  0  0  0
  -15.9250  -14.1140   34.0880 C   0  0  0  0  0  0  0  0  0  0  0  0
  -15.6610  -13.2480   32.8920 C   0  0  0  0  0  0  0  0  0  0  0  0
  -19.0060  -12.5670   31.9960 H   0  0  0  0  0  0  0  0  0  0  0  0
  -20.0640  -15.6030   36.1920 H   0  0  0  0  0  0  0  0  0  0  0  0
  -15.1370  -14.5090   34.6230 H   0  0  0  0  0  0  0  0  0  0  0  0
  -16.5410  -11.8070   30.9180 O   0  0  0  0  0  0  0  0  0  0  0  0
  -16.2510  -10.3460   31.1000 C   0  0  0  0  0  0  0  0  0  0  0  0
  -16.2320   -9.9220   32.0820 H   0  0  0  0  0  0  0  0  0  0  0  0
  -16.0620   -9.7290   30.2460 H   0  0  0  0  0  0  0  0  0  0  0  0
  -16.0430   -9.3040   31.2280 H   0  0  0  0  0  0  0  0  0  0  0  0
  -14.2490  -12.9570   32.4740 O   0  0  0  0  0  0  0  0  0  0  0  0
  -13.1410  -13.8810   32.8840 C   0  0  0  0  0  0  0  0  0  0  0  0
  -12.1340  -13.6740   32.5860 H   0  0  0  0  0  0  0  0  0  0  0  0
  -13.3560  -14.7470   33.4750 H   0  0  0  0  0  0  0  0  0  0  0  0
  -12.3500  -14.5400   33.1770 H   0  0  0  0  0  0  0  0  0  0  0  0
  -16.5000  -17.6200   40.1200 C   0  0  0  0  0  0  0  0  0  0  0  0
  -15.7410  -18.8700   40.4560 N   0  0  0  0  0  0  0  0  0  0  0  0
  -17.2920  -16.9160   41.1810 O   0  0  0  0  0  0  0  0  0  0  0  0
  -15.2210  -19.3320   39.7590 H   0  0  0  0  0  0  0  0  0  0  0  0
  -15.7630  -19.2280   41.3730 H   0  0  0  0  0  0  0  0  0  0  0  0
  -14.0080  -17.8590   38.0270 O   0  0  0  0  0 15  0  0  0  0  0  0
  -12.8170  -17.0440   38.4340 C   0  0  0  0  0  3  0  0  0  0  0  0
  -13.6530  -17.1370   39.0960 H   0  0  0  0  0  0  0  0  0  0  0  0
  -11.6440  -16.9130   37.5090 C   0  0  0  0  0  0  0  0  0  0  0  0
  -10.4270  -17.7640   37.7170 C   0  0  0  0  0  0  0  0  0  0  0  0
   -9.2530  -17.6340   36.7900 C   0  0  0  0  0  0  0  0  0  0  0  0
   -9.2980  -16.6510   35.6580 C   0  0  0  0  0  0  0  0  0  0  0  0
  -10.5160  -15.8000   35.4500 C   0  0  0  0  0  0  0  0  0  0  0  0
  -11.6880  -15.9310   36.3760 C   0  0  0  0  0  0  0  0  0  0  0  0
  -12.9060  -15.0790   36.1690 Cl  0  0  0  0  0  0  0  0  0  0  0  0
  -10.3960  -18.4400   38.4960 H   0  0  0  0  0  0  0  0  0  0  0  0
   -8.4160  -18.2190   36.9330 H   0  0  0  0  0  0  0  0  0  0  0  0
   -8.4900  -16.5620   35.0210 H   0  0  0  0  0  0  0  0  0  0  0  0
  -10.5460  -15.1250   34.6710 H   0  0  0  0  0  0  0  0  0  0  0  0
  -12.7980  -16.3600   39.7700 C   0  0  0  0  0  0  0  0  0  0  0  0
  -13.6340  -16.4520   40.4310 H   0  0  0  0  0  0  0  0  0  0  0  0
  -11.9490  -15.7780   40.0610 H   0  0  0  0  0  0  0  0  0  0  0  0
  -12.7840  -15.8710   40.7220 H   0  0  0  0  0  0  0  0  0  0  0  0
  1  5  1  0
  2  1  2  0
  2  3  1  0
  3  4  2  0
  4 29  1  0
  5  4  1  0
  6  2  1  0
  7  8  2  0
  7 15  1  0
  8  9  1  0
  9 10  1  0
  9 13  2  0
 10 11  2  0
 11 12  1  0
 11 17  1  0
 12  1  1  0
 13 12  1  0
 14 13  1  0
 14 18  1  0
 15 14  2  0
 16  8  1  0
 19 20  1  0
 19  7  1  0
 20 23  1  0
 20 21  1  0
 22 20  1  0
 24 25  1  0
 24 15  1  0
 25 28  1  0
 25 27  1  0
 26 25  1  0
 29 30  1  0
 29 31  2  0
 30 33  1  0
 32 30  1  0
 35 36  1  0
 35 48  1  0
 37 38  1  0
 37 35  1  0
 38 44  1  0
 39 45  1  0
 39 38  2  0
 40 39  1  0
 41 40  2  0
 41 42  1  0
 42 37  2  0
 43 42  1  0
 46 40  1  0
 47 41  1  0
 48 50  1  0
 48 49  1  0
 48 51  1  0
M  END
>  <minimizedAffinity>  (165) 
-9.92787361

$$$$

     RDKit          3D

 56 55  0  0  0  0  0  0  0  0999 V2000
  -15.0070  -16.9510   38.0920 C   0  0  0  0  0  0  0  0  0  0  0  0
  -13.5560  -17.2230   38.3560 C   0  0  0  0  0  0  0  0  0  0  0  0
  -12.5090  -16.6670   37.4370 C   0  0  0  0  0  0  0  0  0  0  0  0
  -12.9140  -15.8390   36.2540 C   0  0  0  0  0  0  0  0  0  0  0  0
  -14.3650  -15.5660   35.9900 C   0  0  0  0  0  0  0  0  0  0  0  0
  -15.4120  -16.1220   36.9090 C   0  0  0  0  0  0  0  0  0  0  0  0
  -13.2780  -17.7940   39.1700 H   0  0  0  0  0  0  0  0  0  0  0  0
  -12.1930  -15.4560   35.6220 H   0  0  0  0  0  0  0  0  0  0  0  0
  -11.0580  -16.9400   37.7010 C   0  0  0  0  0  0  0  0  0  0  0  0
  -10.3720  -16.2870   38.8640 C   0  0  0  0  0  0  0  0  0  0  0  0
   -8.9200  -16.5600   39.1280 C   0  0  0  0  0  0  0  0  0  0  0  0
   -8.1560  -17.4860   38.2290 C   0  0  0  0  0  0  0  0  0  0  0  0
   -6.7050  -17.7590   38.4930 F   0  0  0  0  0  0  0  0  0  0  0  0
   -8.8420  -18.1390   37.0660 C   0  0  0  0  0  0  0  0  0  0  0  0
  -10.2940  -17.8660   36.8020 C   0  0  0  0  0  0  0  0  0  0  0  0
  -10.8980  -15.6500   39.4820 H   0  0  0  0  0  0  0  0  0  0  0  0
   -8.4480  -16.1110   39.9280 H   0  0  0  0  0  0  0  0  0  0  0  0
   -8.3160  -18.7760   36.4470 H   0  0  0  0  0  0  0  0  0  0  0  0
  -10.7660  -18.3150   36.0020 H   0  0  0  0  0  0  0  0  0  0  0  0
  -14.7690  -14.7370   34.8070 C   0  0  0  0  0  0  0  0  0  0  0  0
  -16.2200  -14.4610   34.5460 C   0  0  0  0  0  0  0  0  0  0  0  0
  -16.6240  -13.6320   33.3630 C   0  0  0  0  0  0  0  0  0  0  0  0
  -15.5770  -13.0790   32.4410 C   0  0  0  0  0  0  0  0  0  0  0  0
  -14.1260  -13.3560   32.7020 C   0  0  0  0  0  0  0  0  0  0  0  0
  -13.7220  -14.1850   33.8860 C   0  0  0  0  0  0  0  0  0  0  0  0
  -16.9400  -14.8410   35.1800 H   0  0  0  0  0  0  0  0  0  0  0  0
  -17.6220  -13.4410   33.1830 H   0  0  0  0  0  0  0  0  0  0  0  0
  -13.4060  -12.9760   32.0680 H   0  0  0  0  0  0  0  0  0  0  0  0
  -12.7240  -14.3750   34.0660 H   0  0  0  0  0  0  0  0  0  0  0  0
  -15.9820  -12.2510   31.2580 S   0  0  1  0  0  0  0  0  0  0  0  0
  -14.9630  -12.9580   30.4140 O   0  0  0  0  0  0  0  0  0  0  0  0
  -17.0000  -11.5430   32.1020 O   0  0  0  0  0  0  0  0  0  0  0  0
  -16.3860  -11.4220   30.0750 N   0  0  0  0  0  0  0  0  0  0  0  0
  -17.3100  -11.8490   28.9730 C   0  0  0  0  0  0  0  0  0  0  0  0
  -17.4320  -10.7120   28.0030 C   0  0  0  0  0  2  0  0  0  0  0  0
  -16.5840   -9.5810   28.5050 C   0  0  0  0  0  2  0  0  0  0  0  0
  -15.9370  -10.0190   29.7850 C   0  0  0  0  0  2  0  0  0  0  0  0
  -17.7970  -12.7980   28.8930 H   0  0  0  0  0  0  0  0  0  0  0  0
  -17.9420  -12.0010   28.1240 H   0  0  0  0  0  0  0  0  0  0  0  0
  -18.0210  -10.7070   27.1100 H   0  0  0  0  0  0  0  0  0  0  0  0
  -17.4150   -9.8180   27.4140 H   0  0  0  0  0  0  0  0  0  0  0  0
  -16.4610   -8.6290   28.0330 H   0  0  0  0  0  0  0  0  0  0  0  0
  -15.9410   -8.8770   28.9910 H   0  0  0  0  0  0  0  0  0  0  0  0
  -15.2720   -9.4360   30.3870 H   0  0  0  0  0  0  0  0  0  0  0  0
  -15.5580  -10.4780   30.6750 H   0  0  0  0  0  0  0  0  0  0  0  0
  -15.6570  -18.0870   40.3360 N   0  0  0  0  0  0  0  0  0  0  0  0
  -16.0540  -17.5070   39.0110 C   0  0  0  0  0  0  0  0  0  0  0  0
  -17.4980  -17.4820   38.6060 O   0  0  0  0  0  0  0  0  0  0  0  0
  -14.7100  -18.1030   40.6030 H   0  0  0  0  0  0  0  0  0  0  0  0
  -16.7040  -18.6430   41.2560 C   0  0  0  0  0  0  0  0  0  0  0  0
  -16.4210  -19.0570   42.2010 H   0  0  0  0  0  0  0  0  0  0  0  0
  -17.7340  -18.6260   40.9660 H   0  0  0  0  0  0  0  0  0  0  0  0
  -17.4510  -19.0400   41.9110 H   0  0  0  0  0  0  0  0  0  0  0  0
  -16.8630  -15.8490   36.6450 N   0  0  0  0  0  0  0  0  0  0  0  0
  -17.5500  -16.2140   37.2480 H   0  0  0  0  0  0  0  0  0  0  0  0
  -17.1290  -15.3050   35.8690 H   0  0  0  0  0  0  0  0  0  0  0  0
  1  2  1  0
  1 47  1  0
  2  7  1  0
  3  9  1  0
  3  2  2  0
  4  3  1  0
  5  4  2  0
  5  6  1  0
  6  1  2  0
  8  4  1  0
  9 10  1  0
 10 11  2  0
 10 16  1  0
 11 17  1  0
 12 13  1  0
 12 11  1  0
 14 12  2  0
 15 14  1  0
 15  9  2  0
 18 14  1  0
 19 15  1  0
 20  5  1  0
 21 20  1  0
 21 26  1  0
 22 21  2  0
 23 24  2  0
 23 22  1  0
 24 25  1  0
 25 29  1  0
 25 20  2  0
 27 22  1  0
 28 24  1  0
 30 32  2  0
 30 23  1  0
 31 30  2  0
 33 30  1  0
 34 33  2  0
 36 43  1  0
 37 44  1  0
 37 45  1  0
 38 34  1  0
 39 34  1  0
 40 35  1  0
 41 35  1  0
 42 36  1  0
 46 49  1  0
 46 50  1  0
 47 46  1  0
 48 47  2  0
 50 53  1  0
 50 51  1  0
 52 50  1  0
 54  6  1  0
 54 55  1  0
 56 54  1  0
M  END
>  <minimizedAffinity>  (166) 
-9.45824146

$$$$

     RDKit          3D

 46 48  0  0  1  0  0  0  0  0999 V2000
  -10.8790  -15.6390   35.4090 C   0  0  0  0  0  3  0  0  0  0  0  0
  -11.9440  -14.7490   35.9780 C   0  0  0  0  0  0  0  0  0  0  0  0
  -12.9150  -14.0610   35.0640 C   0  0  0  0  0  0  0  0  0  0  0  0
  -12.8200  -14.2630   33.5810 C   0  0  0  0  0  0  0  0  0  0  0  0
  -11.7550  -15.1520   33.0110 C   0  0  0  0  0  0  0  0  0  0  0  0
  -10.7840  -15.8400   33.9250 C   0  0  0  0  0  0  0  0  0  0  0  0
   -9.7190  -16.7300   33.3560 Cl  0  0  0  0  0  0  0  0  0  0  0  0
  -12.0100  -14.6110   36.9990 H   0  0  0  0  0  0  0  0  0  0  0  0
  -13.6480  -13.4490   35.4560 H   0  0  0  0  0  0  0  0  0  0  0  0
  -11.6890  -15.2910   31.9910 H   0  0  0  0  0  0  0  0  0  0  0  0
  -13.7900  -13.5750   32.6670 N   0  0  0  0  0  0  0  0  0  0  0  0
  -15.2590  -13.6090   32.9690 C   0  0  0  0  0  3  0  0  0  0  0  0
  -15.7570  -14.3320   34.1860 N   0  0  0  0  0  0  0  0  0  0  0  0
  -17.2260  -14.3660   34.4880 C   0  0  0  0  0  0  0  0  0  0  0  0
  -18.1960  -13.6780   33.5740 N   0  0  0  0  0  2  0  0  0  0  0  0
  -17.6980  -12.9560   32.3580 C   0  0  0  0  0  0  0  0  0  0  0  0
  -18.4100  -12.1920   31.2820 S   0  0  0  0  0  0  0  0  0  0  0  0
  -17.3820  -11.6850   30.3140 C   0  0  0  0  0  0  0  0  0  0  0  0
  -16.0340  -12.1360   30.7920 C   0  0  0  0  0  0  0  0  0  0  0  0
  -16.2290  -12.9210   32.0550 C   0  0  0  0  0  0  0  0  0  0  0  0
  -13.4620  -13.1010   31.8680 H   0  0  0  0  0  0  0  0  0  0  0  0
  -17.5690  -14.8630   35.3250 H   0  0  0  0  0  0  0  0  0  0  0  0
  -15.1310  -11.9410   30.3330 H   0  0  0  0  0  0  0  0  0  0  0  0
  -17.6550  -10.8710   29.0840 C   0  0  0  0  0  0  0  0  0  0  0  0
  -18.9880  -10.3320   28.6610 C   0  0  0  0  0  0  0  0  0  0  0  0
  -18.7990   -9.5810   27.3770 C   0  0  0  0  0  0  0  0  0  0  0  0
  -17.3470   -9.6560   27.0060 C   0  0  0  0  0  0  0  0  0  0  0  0
  -16.6400  -10.4530   28.0610 S   0  0  0  0  0  0  0  0  0  0  0  0
  -19.8800  -10.4560   29.1650 H   0  0  0  0  0  0  0  0  0  0  0  0
  -19.5370   -9.0970   26.8420 H   0  0  0  0  0  0  0  0  0  0  0  0
  -16.9120   -9.2330   26.1710 H   0  0  0  0  0  0  0  0  0  0  0  0
   -9.9090  -16.3270   36.3230 O   0  0  0  0  0 15  0  0  0  0  0  0
  -10.3980  -17.3560   37.2980 C   0  0  0  0  0  3  0  0  0  0  0  0
   -9.9940  -18.3470   37.2780 H   0  0  0  0  0  0  0  0  0  0  0  0
   -9.6450  -17.6130   36.5820 H   0  0  0  0  0  0  0  0  0  0  0  0
  -11.7600  -15.1500   41.8010 F   0  0  0  0  0  0  0  0  0  0  0  0
  -12.1340  -15.8940   40.5530 C   0  0  0  0  0  0  0  0  0  0  0  0
  -13.5640  -16.2780   40.3090 C   0  0  0  0  0  0  0  0  0  0  0  0
  -13.9380  -17.0220   39.0610 C   0  0  0  0  0  0  0  0  0  0  0  0
  -12.8820  -17.3810   38.0580 C   0  0  0  0  0  0  0  0  0  0  0  0
  -11.4530  -16.9970   38.3020 C   0  0  0  0  0  0  0  0  0  0  0  0
  -11.0790  -16.2530   39.5490 C   0  0  0  0  0  0  0  0  0  0  0  0
  -14.2890  -16.0310   41.0000 H   0  0  0  0  0  0  0  0  0  0  0  0
  -14.9210  -17.2870   38.8930 H   0  0  0  0  0  0  0  0  0  0  0  0
  -13.1400  -17.8930   37.1990 H   0  0  0  0  0  0  0  0  0  0  0  0
  -10.0960  -15.9880   39.7170 H   0  0  0  0  0  0  0  0  0  0  0  0
  1  2  1  0
  2  8  1  0
  3  9  1  0
  3  2  2  0
  4  3  1  0
  5  4  2  0
  5  6  1  0
  6  1  2  0
  7  6  1  0
 10  5  1  0
 11  4  1  0
 12 11  1  0
 12 13  1  0
 13 14  2  0
 14 22  1  0
 15 14  1  0
 16 15  1  0
 17 16  1  0
 18 19  2  0
 18 17  1  0
 19 20  1  0
 20 16  2  0
 20 12  1  0
 21 11  1  0
 23 19  1  0
 24 18  1  0
 25 24  2  0
 25 29  1  0
 26 25  1  0
 27 26  2  0
 27 28  1  0
 28 24  1  0
 30 26  1  0
 31 27  1  0
 33 41  1  0
 34 33  1  0
 35 33  1  0
 37 36  1  0
 38 37  1  0
 38 43  1  0
 39 38  2  0
 40 41  2  0
 40 39  1  0
 41 42  1  0
 42 46  1  0
 42 37  2  0
 44 39  1  0
 45 40  1  0
M  END
>  <minimizedAffinity>  (167) 
-9.08530807

$$$$

     RDKit          3D

 53 52  0  0  0  0  0  0  0  0999 V2000
  -16.0560  -15.7550   36.8980 C   0  0  0  0  0  0  0  0  0  0  0  0
  -15.7720  -15.3670   35.4770 C   0  0  0  0  0  0  0  0  0  0  0  0
  -17.0830  -15.1340   34.7890 N   0  0  0  0  0  0  0  0  0  0  0  0
  -18.1790  -15.3770   35.7840 C   0  0  0  0  0  0  0  0  0  0  0  0
  -17.5440  -15.7610   37.0870 N   0  0  0  0  0  0  0  0  0  0  0  0
  -19.1920  -15.2950   35.6040 H   0  0  0  0  0  0  0  0  0  0  0  0
  -18.2690  -16.0930   38.3580 C   0  0  0  0  0  2  0  0  0  0  0  0
  -18.3140  -17.5100   38.8480 C   0  0  0  0  0  2  0  0  0  0  0  0
  -19.0390  -17.8420   40.1190 C   0  0  0  0  0  2  0  0  0  0  0  0
  -19.7190  -16.7560   40.8990 N   0  0  0  0  0  2  0  0  0  0  0  0
  -19.6750  -15.3400   40.4080 C   0  0  0  0  0  3  0  0  0  0  0  0
  -18.9500  -15.0070   39.1380 C   0  0  0  0  0  2  0  0  0  0  0  0
  -18.7870  -16.3290   39.2640 H   0  0  0  0  0  0  0  0  0  0  0  0
  -17.8280  -18.2840   38.2920 H   0  0  0  0  0  0  0  0  0  0  0  0
  -18.3460  -18.5210   39.1980 H   0  0  0  0  0  0  0  0  0  0  0  0
  -19.0700  -18.8520   40.4680 H   0  0  0  0  0  0  0  0  0  0  0  0
  -19.5560  -18.0780   41.0250 H   0  0  0  0  0  0  0  0  0  0  0  0
  -20.2120  -16.9810   41.7620 H   0  0  0  0  0  0  0  0  0  0  0  0
  -20.1610  -14.5650   40.9650 H   0  0  0  0  0  0  0  0  0  0  0  0
  -19.6430  -14.3280   40.0590 H   0  0  0  0  0  0  0  0  0  0  0  0
  -18.9180  -13.9970   38.7880 H   0  0  0  0  0  0  0  0  0  0  0  0
  -18.4320  -14.7720   38.2310 H   0  0  0  0  0  0  0  0  0  0  0  0
  -14.4130  -15.2350   34.8540 C   0  0  0  0  0  0  0  0  0  0  0  0
  -13.4090  -14.2870   35.4390 C   0  0  0  0  0  0  0  0  0  0  0  0
  -12.0510  -14.1550   34.8160 C   0  0  0  0  0  0  0  0  0  0  0  0
  -11.6970  -14.9720   33.6090 C   0  0  0  0  0  0  0  0  0  0  0  0
  -10.3380  -14.8400   32.9870 F   0  0  0  0  0  0  0  0  0  0  0  0
  -12.7010  -15.9210   33.0240 C   0  0  0  0  0  0  0  0  0  0  0  0
  -14.0590  -16.0520   33.6470 C   0  0  0  0  0  0  0  0  0  0  0  0
  -13.6530  -13.7250   36.2690 H   0  0  0  0  0  0  0  0  0  0  0  0
  -11.3600  -13.5030   35.2190 H   0  0  0  0  0  0  0  0  0  0  0  0
  -12.4570  -16.4820   32.1940 H   0  0  0  0  0  0  0  0  0  0  0  0
  -14.7500  -16.7050   33.2440 H   0  0  0  0  0  0  0  0  0  0  0  0
  -12.7720  -17.1680   38.6210 C   0  0  0  0  0  0  0  0  0  0  0  0
  -12.9850  -16.7280   40.0390 N   0  0  0  0  0  0  0  0  0  0  0  0
  -14.2210  -15.9640   40.4100 C   0  0  0  0  0  3  0  0  0  0  0  0
  -15.2450  -15.6400   39.3630 C   0  0  0  0  0  0  0  0  0  0  0  0
  -15.0320  -16.0790   37.9450 C   0  0  0  0  0  0  0  0  0  0  0  0
  -13.7960  -16.8430   37.5740 N   0  0  0  0  0  0  0  0  0  0  0  0
  -14.3680  -15.6620   41.3860 H   0  0  0  0  0  0  0  0  0  0  0  0
  -16.0960  -15.1140   39.6190 H   0  0  0  0  0  0  0  0  0  0  0  0
  -11.5360  -17.9310   38.2500 O   0  0  0  0  0  0  0  0  0  0  0  0
   -6.2950  -15.0650   37.6820 F   0  0  0  0  0  0  0  0  0  0  0  0
   -7.6050  -15.7820   37.8240 C   0  0  0  0  0  0  0  0  0  0  0  0
   -8.7680  -15.3970   36.9580 C   0  0  0  0  0  0  0  0  0  0  0  0
  -10.0790  -16.1130   37.1000 C   0  0  0  0  0  0  0  0  0  0  0  0
  -10.2260  -17.2150   38.1080 C   0  0  0  0  0  0  0  0  0  0  0  0
   -9.0630  -17.6000   38.9740 C   0  0  0  0  0  0  0  0  0  0  0  0
   -7.7530  -16.8830   38.8320 C   0  0  0  0  0  0  0  0  0  0  0  0
   -8.6670  -14.6390   36.2650 H   0  0  0  0  0  0  0  0  0  0  0  0
  -10.8790  -15.8490   36.5050 H   0  0  0  0  0  0  0  0  0  0  0  0
   -9.1640  -18.3570   39.6670 H   0  0  0  0  0  0  0  0  0  0  0  0
   -6.9520  -17.1480   39.4270 H   0  0  0  0  0  0  0  0  0  0  0  0
  1  5  1  0
  1 38  1  0
  2  1  2  0
  3  2  1  0
  3  4  2  0
  4  5  1  0
  5  7  1  0
  6  4  1  0
  7 13  1  0
  8 15  1  0
  9 16  1  0
  9 17  1  0
 10 18  1  0
 11 10  1  0
 11 19  1  0
 14  8  1  0
 20 11  1  0
 21 12  1  0
 22 12  1  0
 23 24  1  0
 23  2  1  0
 24 30  1  0
 25 31  1  0
 25 24  2  0
 26 25  1  0
 27 26  1  0
 28 26  2  0
 28 29  1  0
 29 23  2  0
 32 28  1  0
 33 29  1  0
 34 35  2  0
 35 36  1  0
 36 40  1  0
 37 41  1  0
 37 36  1  0
 38 37  2  0
 39 38  1  0
 39 34  2  0
 42 34  1  0
 43 44  1  0
 44 49  1  0
 45 46  1  0
 45 44  2  0
 46 47  2  0
 47 42  1  0
 47 48  1  0
 48 52  1  0
 49 48  2  0
 49 53  1  0
 50 45  1  0
 51 46  1  0
M  END
>  <minimizedAffinity>  (168) 
-9.05389214

$$$$

     RDKit          3D

 43 42  0  0  1  0  0  0  0  0999 V2000
  -10.8690  -15.9060   35.2910 C   0  0  0  0  0  0  0  0  0  0  0  0
   -9.5620  -16.6080   35.0630 C   0  0  0  0  0  0  0  0  0  0  0  0
   -8.9650  -17.4530   36.1480 C   0  0  0  0  0  0  0  0  0  0  0  0
   -9.6740  -17.5980   37.4620 C   0  0  0  0  0  3  0  0  0  0  0  0
  -10.9800  -16.8970   37.6910 C   0  0  0  0  0  0  0  0  0  0  0  0
  -11.5770  -16.0510   36.6050 C   0  0  0  0  0  0  0  0  0  0  0  0
   -9.0750  -16.5080   34.1580 H   0  0  0  0  0  0  0  0  0  0  0  0
   -8.0660  -17.9360   35.9900 H   0  0  0  0  0  0  0  0  0  0  0  0
  -12.4760  -15.5680   36.7630 H   0  0  0  0  0  0  0  0  0  0  0  0
  -11.6890  -17.0410   39.0050 N   0  0  0  0  0  0  0  0  0  0  0  0
  -13.1680  -16.8060   39.0890 C   0  0  0  0  0  0  0  0  0  0  0  0
  -14.0080  -16.9120   40.3260 N   0  0  0  0  0  0  0  0  0  0  0  0
  -15.4260  -16.5950   39.9520 C   0  0  0  0  0  0  0  0  0  0  0  0
  -15.4620  -16.2920   38.4840 C   0  0  0  0  0  0  0  0  0  0  0  0
  -14.0660  -16.4220   37.9500 O   0  0  0  0  0  0  0  0  0  0  0  0
  -11.1840  -17.2900   39.8110 H   0  0  0  0  0  0  0  0  0  0  0  0
  -16.2350  -16.5860   40.5930 H   0  0  0  0  0  0  0  0  0  0  0  0
  -16.6790  -15.9240   37.6890 C   0  0  0  0  0  0  0  0  0  0  0  0
  -18.0060  -15.7790   38.3720 C   0  0  0  0  0  0  0  0  0  0  0  0
  -19.2230  -15.4110   37.5770 C   0  0  0  0  0  0  0  0  0  0  0  0
  -19.1140  -15.1870   36.0990 C   0  0  0  0  0  0  0  0  0  0  0  0
  -17.7860  -15.3310   35.4140 C   0  0  0  0  0  0  0  0  0  0  0  0
  -16.5690  -15.6990   36.2090 C   0  0  0  0  0  0  0  0  0  0  0  0
  -15.2420  -15.8440   35.5250 Cl  0  0  0  0  0  0  0  0  0  0  0  0
  -18.0820  -15.9340   39.3900 H   0  0  0  0  0  0  0  0  0  0  0  0
  -20.1370  -15.3120   38.0480 H   0  0  0  0  0  0  0  0  0  0  0  0
  -19.9510  -14.9330   35.5520 H   0  0  0  0  0  0  0  0  0  0  0  0
  -17.7110  -15.1770   34.3970 H   0  0  0  0  0  0  0  0  0  0  0  0
  -11.4660  -15.0610   34.2060 S   0  0  0  0  0  0  0  0  0  0  0  0
  -10.7840  -15.9070   33.1720 O   0  0  0  0  0 15  0  0  0  0  0  0
  -12.1480  -14.2150   35.2400 O   0  0  0  0  0 15  0  0  0  0  0  0
  -12.0630  -14.2150   33.1210 C   0  0  0  0  0  3  0  0  0  0  0  0
  -11.4290  -13.6280   32.4890 H   0  0  0  0  0  0  0  0  0  0  0  0
  -11.0030  -14.2310   33.2630 H   0  0  0  0  0  0  0  0  0  0  0  0
  -13.5490  -14.1920   32.9200 C   0  0  0  0  0  0  0  0  0  0  0  0
  -13.9760  -13.5880   32.1460 H   0  0  0  0  0  0  0  0  0  0  0  0
  -14.1840  -14.7790   33.5510 H   0  0  0  0  0  0  0  0  0  0  0  0
  -14.6100  -14.1750   32.7770 H   0  0  0  0  0  0  0  0  0  0  0  0
   -9.0770  -18.4440   38.5470 O   0  0  0  0  0  0  0  0  0  0  0  0
   -7.6700  -18.9490   38.4160 C   0  0  0  0  0  0  0  0  0  0  0  0
   -7.2440  -19.5520   39.1900 H   0  0  0  0  0  0  0  0  0  0  0  0
   -7.0930  -18.7060   37.5480 H   0  0  0  0  0  0  0  0  0  0  0  0
   -6.6670  -19.3090   38.3220 H   0  0  0  0  0  0  0  0  0  0  0  0
  1  6  1  0
  2  1  1  0
  2  3  2  0
  3  4  1  0
  4  5  1  0
  4 39  1  0
  5 10  1  0
  6  9  1  0
  6  5  2  0
  7  2  1  0
  8  3  1  0
 10 11  1  0
 10 16  1  0
 11 12  2  0
 13 12  1  0
 13 17  1  0
 14 13  2  0
 15 14  1  0
 15 11  1  0
 18 19  1  0
 18 14  1  0
 19 25  1  0
 20 26  1  0
 20 19  2  0
 21 20  1  0
 22 21  2  0
 22 23  1  0
 23 18  2  0
 24 23  1  0
 27 21  1  0
 28 22  1  0
 29  1  2  0
 32 34  1  0
 33 32  1  0
 35 32  1  0
 35 37  1  0
 36 35  1  0
 38 35  1  0
 40 39  1  0
 40 41  1  0
 42 40  1  0
 43 40  1  0
M  END
>  <minimizedAffinity>  (169) 
-9.60817719

$$$$

     RDKit          3D

 51 54  0  0  0  0  0  0  0  0999 V2000
  -17.2750  -14.8170   35.1790 C   0  0  0  0  0  0  0  0  0  0  0  0
  -17.2290  -15.7990   36.3120 C   0  0  0  0  0  0  0  0  0  0  0  0
  -15.9220  -16.4080   36.7250 C   0  0  0  0  0  0  0  0  0  0  0  0
  -14.6600  -16.0350   36.0040 N   0  0  0  0  0  0  0  0  0  0  0  0
  -14.7060  -15.0530   34.8710 C   0  0  0  0  0  0  0  0  0  0  0  0
  -13.4440  -14.6800   34.1510 N   0  0  0  0  0  0  0  0  0  0  0  0
  -16.0130  -14.4440   34.4590 N   0  0  0  0  0  0  0  0  0  0  0  0
  -18.0980  -16.0560   36.8080 H   0  0  0  0  0  0  0  0  0  0  0  0
  -15.8910  -17.0840   37.5040 H   0  0  0  0  0  0  0  0  0  0  0  0
  -13.4740  -14.0360   33.4070 H   0  0  0  0  0  0  0  0  0  0  0  0
  -12.1370  -15.2890   34.5640 C   0  0  0  0  0  0  0  0  0  0  0  0
  -11.1070  -15.6270   33.5270 C   0  0  0  0  0  0  0  0  0  0  0  0
   -9.7990  -16.2360   33.9400 C   0  0  0  0  0  0  0  0  0  0  0  0
   -9.5230  -16.5070   35.3890 C   0  0  0  0  0  0  0  0  0  0  0  0
  -10.5530  -16.1700   36.4250 C   0  0  0  0  0  0  0  0  0  0  0  0
  -11.8600  -15.5610   36.0130 C   0  0  0  0  0  0  0  0  0  0  0  0
  -11.2970  -15.4400   32.5300 H   0  0  0  0  0  0  0  0  0  0  0  0
   -9.0900  -16.4680   33.2260 H   0  0  0  0  0  0  0  0  0  0  0  0
   -8.6230  -16.9260   35.6720 H   0  0  0  0  0  0  0  0  0  0  0  0
  -12.5690  -15.3290   36.7260 H   0  0  0  0  0  0  0  0  0  0  0  0
  -10.2760  -16.4410   37.8740 S   0  0  2  0  0  0  0  0  0  0  0  0
  -11.7270  -16.7520   38.0930 O   0  0  0  0  0  0  0  0  0  0  0  0
   -8.8250  -16.1310   37.6550 O   0  0  0  0  0  0  0  0  0  0  0  0
   -9.9990  -16.7130   39.3230 N   0  0  0  0  0  0  0  0  0  0  0  0
  -10.7600  -16.9880   39.9450 H   0  0  0  0  0  0  0  0  0  0  0  0
   -9.0510  -16.6230   39.6860 H   0  0  0  0  0  0  0  0  0  0  0  0
  -18.5820  -14.2080   34.7670 N   0  0  0  0  0  0  0  0  0  0  0  0
  -19.0580  -11.4080   29.5090 C   0  0  0  0  0  0  0  0  0  0  0  0
  -18.8740  -11.9010   30.9140 C   0  0  0  0  0  0  0  0  0  0  0  0
  -18.4530  -11.2060   32.1750 C   0  0  0  0  0  0  0  0  0  0  0  0
  -18.3560  -11.9750   33.4590 C   0  0  0  0  0  0  0  0  0  0  0  0
  -18.6790  -13.4390   33.4830 C   0  0  0  0  0  0  0  0  0  0  0  0
  -19.1000  -14.1350   32.2220 C   0  0  0  0  0  0  0  0  0  0  0  0
  -19.1970  -13.3660   30.9380 C   0  0  0  0  0  0  0  0  0  0  0  0
  -19.5820  -13.7790   29.5470 N   0  0  0  0  0  0  0  0  0  0  0  0
  -19.4950  -12.5690   28.6650 N   0  0  0  0  0  0  0  0  0  0  0  0
  -18.2300  -10.1980   32.1580 H   0  0  0  0  0  0  0  0  0  0  0  0
  -18.0660  -11.4960   34.3260 H   0  0  0  0  0  0  0  0  0  0  0  0
  -19.3230  -15.1420   32.2380 H   0  0  0  0  0  0  0  0  0  0  0  0
  -18.8430  -10.0030   29.0330 C   0  0  0  0  0  0  0  0  0  0  0  0
  -19.0030   -9.7560   28.0040 H   0  0  0  0  0  0  0  0  0  0  0  0
  -18.5280   -9.2470   29.7220 H   0  0  0  0  0  0  0  0  0  0  0  0
  -18.6890   -9.0000   28.6930 H   0  0  0  0  0  0  0  0  0  0  0  0
  -19.7940  -12.5260   27.1960 C   0  0  0  0  0  0  0  0  0  0  0  0
  -20.1010  -13.4160   26.6860 H   0  0  0  0  0  0  0  0  0  0  0  0
  -19.7010  -11.6060   26.6570 H   0  0  0  0  0  0  0  0  0  0  0  0
  -20.0080  -12.4960   26.1480 H   0  0  0  0  0  0  0  0  0  0  0  0
  -19.7920  -14.3680   35.6390 C   0  0  0  0  0  0  0  0  0  0  0  0
  -20.7250  -13.9340   35.3440 H   0  0  0  0  0  0  0  0  0  0  0  0
  -19.7230  -14.9170   36.5550 H   0  0  0  0  0  0  0  0  0  0  0  0
  -20.6560  -14.4820   36.2610 H   0  0  0  0  0  0  0  0  0  0  0  0
  1  2  1  0
  2  3  2  0
  2  8  1  0
  3  9  1  0
  4  3  1  0
  5  4  2  0
  6 11  1  0
  6  5  1  0
  7  5  1  0
  7  1  2  0
 10  6  1  0
 11 16  1  0
 12 13  1  0
 12 11  2  0
 13 14  2  0
 14 19  1  0
 14 15  1  0
 15 21  1  0
 16 15  2  0
 16 20  1  0
 17 12  1  0
 18 13  1  0
 21 22  2  0
 21 24  1  0
 23 21  2  0
 24 26  1  0
 24 25  1  0
 27  1  1  0
 27 48  1  0
 28 29  2  0
 29 34  1  0
 29 30  1  0
 30 31  2  0
 31 32  1  0
 31 38  1  0
 32 27  1  0
 33 39  1  0
 33 32  2  0
 34 33  1  0
 35 34  2  0
 36 28  1  0
 36 35  1  0
 37 30  1  0
 40 28  1  0
 40 42  1  0
 41 40  1  0
 43 40  1  0
 44 36  1  0
 45 44  1  0
 46 44  1  0
 47 44  1  0
 48 51  1  0
 48 50  1  0
 49 48  1  0
M  END
>  <minimizedAffinity>  (170) 
-8.2878685

$$$$

     RDKit          3D

 60 63  0  0  1  0  0  0  0  0999 V2000
  -17.0210  -15.1470   38.1520 N   0  0  0  0  0  0  0  0  0  0  0  0
  -17.6380  -15.8650   36.9890 C   0  0  0  0  0  0  0  0  0  0  0  0
  -17.8560  -16.8720   37.0590 H   0  0  0  0  0  0  0  0  0  0  0  0
  -17.9400  -15.1200   35.7220 C   0  0  0  0  0  0  0  0  0  0  0  0
  -19.3630  -14.8860   35.3100 C   0  0  0  0  0  0  0  0  0  0  0  0
  -19.6640  -14.1410   34.0440 C   0  0  0  0  0  0  0  0  0  0  0  0
  -18.5420  -13.6300   33.1890 C   0  0  0  0  0  0  0  0  0  0  0  0
  -17.1190  -13.8650   33.6000 C   0  0  0  0  0  0  0  0  0  0  0  0
  -16.8180  -14.6100   34.8670 C   0  0  0  0  0  0  0  0  0  0  0  0
  -20.1350  -15.2370   35.8990 H   0  0  0  0  0  0  0  0  0  0  0  0
  -20.6430  -13.9790   33.7610 H   0  0  0  0  0  0  0  0  0  0  0  0
  -16.3470  -13.5140   33.0120 H   0  0  0  0  0  0  0  0  0  0  0  0
  -15.8380  -14.7720   35.1500 H   0  0  0  0  0  0  0  0  0  0  0  0
  -18.8430  -12.8860   31.9220 C   0  0  0  0  0  0  0  0  0  0  0  0
  -18.6580  -13.5580   30.5940 O   0  0  0  0  0  0  0  0  0  0  0  0
  -19.3310  -11.4680   31.9830 N   0  0  0  0  0  0  0  0  0  0  0  0
  -19.4530  -11.0260   32.8550 H   0  0  0  0  0  0  0  0  0  0  0  0
  -19.6320  -10.7230   30.7170 C   0  0  0  0  0  0  0  0  0  0  0  0
  -20.5920  -10.8180   30.2560 H   0  0  0  0  0  0  0  0  0  0  0  0
  -19.8470  -10.1920   29.8130 H   0  0  0  0  0  0  0  0  0  0  0  0
  -18.5860   -9.8460   30.0960 C   0  0  0  0  0  0  0  0  0  0  0  0
  -18.7800   -8.8040   29.9480 H   0  0  0  0  0  0  0  0  0  0  0  0
  -17.8390   -9.2200   29.6530 H   0  0  0  0  0  0  0  0  0  0  0  0
  -17.2670  -10.4290   29.6820 N   0  0  0  0  0  0  0  0  0  0  0  0
  -17.1020  -11.0100   28.3090 C   0  0  0  0  0  0  0  0  0  0  0  0
  -17.9250  -11.0090   27.6250 H   0  0  0  0  0  0  0  0  0  0  0  0
  -16.1620  -11.4260   28.0130 H   0  0  0  0  0  0  0  0  0  0  0  0
  -16.9850  -11.4250   27.3290 H   0  0  0  0  0  0  0  0  0  0  0  0
  -16.1140  -10.4300   30.6400 C   0  0  0  0  0  0  0  0  0  0  0  0
  -15.1730  -10.8460   30.3450 H   0  0  0  0  0  0  0  0  0  0  0  0
  -16.2310  -10.0160   31.6190 H   0  0  0  0  0  0  0  0  0  0  0  0
  -15.2910  -10.4320   31.3230 H   0  0  0  0  0  0  0  0  0  0  0  0
  -16.7200  -15.8920   39.4190 N   0  0  0  0  0  0  0  0  0  0  0  0
  -17.4510  -16.3100   39.9290 H   0  0  0  0  0  0  0  0  0  0  0  0
  -11.9090  -16.7090   38.2490 N   0  0  0  0  0  0  0  0  0  0  0  0
  -12.7820  -16.7880   37.0310 N   0  0  0  0  0  0  0  0  0  0  0  0
  -14.1970  -16.5350   37.4580 C   0  0  0  0  0  0  0  0  0  0  0  0
  -14.1990  -16.2990   38.9400 C   0  0  0  0  0  0  0  0  0  0  0  0
  -15.3060  -16.0000   39.9070 C   0  0  0  0  0  3  0  0  0  0  0  0
  -14.9990  -15.8090   41.3630 N   0  0  0  0  0  0  0  0  0  0  0  0
  -13.5840  -15.9170   41.8510 C   0  0  0  0  0  0  0  0  0  0  0  0
  -12.4780  -16.2160   40.8840 N   0  0  0  0  0  2  0  0  0  0  0  0
  -12.7850  -16.4070   39.4280 C   0  0  0  0  0  0  0  0  0  0  0  0
  -15.0240  -16.5240   36.8420 H   0  0  0  0  0  0  0  0  0  0  0  0
  -13.3730  -15.7860   42.8530 H   0  0  0  0  0  0  0  0  0  0  0  0
   -8.3570  -18.4400   38.6170 C   0  0  0  0  0  0  0  0  0  0  0  0
   -7.4470  -17.2800   38.3450 C   0  0  0  0  0  0  0  0  0  0  0  0
   -8.0230  -15.9290   38.0420 C   0  0  0  0  0  0  0  0  0  0  0  0
   -9.5110  -15.7390   38.0090 C   0  0  0  0  0  0  0  0  0  0  0  0
  -10.4210  -16.9000   38.2810 C   0  0  0  0  0  0  0  0  0  0  0  0
   -9.8450  -18.2500   38.5850 C   0  0  0  0  0  0  0  0  0  0  0  0
   -6.4230  -17.4100   38.3670 H   0  0  0  0  0  0  0  0  0  0  0  0
   -7.3970  -15.1300   37.8550 H   0  0  0  0  0  0  0  0  0  0  0  0
   -9.9080  -14.8100   37.8000 H   0  0  0  0  0  0  0  0  0  0  0  0
  -10.4710  -19.0490   38.7720 H   0  0  0  0  0  0  0  0  0  0  0  0
   -7.7800  -19.7920   38.9210 O   0  0  0  0  0  0  0  0  0  0  0  0
   -6.2960  -20.0040   38.8630 C   0  0  0  0  0  0  0  0  0  0  0  0
   -5.6490  -19.1910   38.6050 H   0  0  0  0  0  0  0  0  0  0  0  0
   -5.8840  -20.9660   39.0790 H   0  0  0  0  0  0  0  0  0  0  0  0
   -5.2370  -20.1550   38.8220 H   0  0  0  0  0  0  0  0  0  0  0  0
  1 33  1  0
  2  3  1  0
  2  1  2  0
  4  2  1  0
  5  4  1  0
  5 10  1  0
  6  5  2  0
  7  8  2  0
  7  6  1  0
  8  9  1  0
  9 13  1  0
  9  4  2  0
 11  6  1  0
 12  8  1  0
 14 16  1  0
 14  7  1  0
 15 14  2  0
 16 17  1  0
 18 16  1  0
 19 18  1  0
 20 18  1  0
 21 18  1  0
 22 21  1  0
 23 21  1  0
 24 21  1  0
 24 29  1  0
 25 24  1  0
 26 25  1  0
 27 25  1  0
 28 25  1  0
 29 32  1  0
 29 31  1  0
 30 29  1  0
 33 34  1  0
 35 50  1  0
 35 43  1  0
 36 37  2  0
 36 35  1  0
 37 38  1  0
 38 43  2  0
 38 39  1  0
 39 33  1  0
 39 40  1  0
 40 41  2  0
 41 45  1  0
 42 41  1  0
 43 42  1  0
 44 37  1  0
 46 56  1  0
 47 52  1  0
 47 46  2  0
 48 47  1  0
 49 48  2  0
 49 50  1  0
 50 51  2  0
 51 46  1  0
 51 55  1  0
 53 48  1  0
 54 49  1  0
 57 56  1  0
 57 59  1  0
 58 57  1  0
 60 57  1  0
M  END
>  <minimizedAffinity>  (171) 
-7.18873978

$$$$

     RDKit          3D

 24 26  0  0  0  0  0  0  0  0999 V2000
  -13.0140  -16.2770   36.7000 N   0  0  0  0  0  0  0  0  0  0  0  0
  -11.5980  -15.8880   36.3970 C   0  0  0  0  0  0  0  0  0  0  0  0
  -11.6180  -14.9020   35.2660 N   0  0  0  0  0  0  0  0  0  0  0  0
  -13.0480  -14.6820   34.8700 C   0  0  0  0  0  0  0  0  0  0  0  0
  -13.6760  -13.8170   33.8170 C   0  0  0  0  0  0  0  0  0  0  0  0
  -15.1660  -13.8020   33.6500 N   0  0  0  0  0  0  0  0  0  0  0  0
  -16.0290  -14.6510   34.5360 C   0  0  0  0  0  0  0  0  0  0  0  0
  -15.4010  -15.5150   35.5890 C   0  0  0  0  0  0  0  0  0  0  0  0
  -13.9110  -15.5310   35.7560 C   0  0  0  0  0  0  0  0  0  0  0  0
  -13.0820  -13.2330   33.2080 H   0  0  0  0  0  0  0  0  0  0  0  0
  -17.0550  -14.6400   34.4210 H   0  0  0  0  0  0  0  0  0  0  0  0
  -15.9950  -16.1000   36.1980 H   0  0  0  0  0  0  0  0  0  0  0  0
  -10.3740  -16.3960   37.1010 C   0  0  0  0  0  0  0  0  0  0  0  0
  -10.1840  -16.4820   38.5870 N   0  0  0  0  0  0  0  0  0  0  0  0
   -8.8180  -17.0470   38.8470 O   0  0  0  0  0  0  0  0  0  0  0  0
   -8.1650  -17.3090   37.5230 N   0  0  0  0  0  0  0  0  0  0  0  0
   -9.1260  -16.9070   36.4430 C   0  0  0  0  0  0  0  0  0  0  0  0
   -8.8830  -17.0000   34.9670 N   0  0  0  0  0  0  0  0  0  0  0  0
   -9.5790  -16.7100   34.3330 H   0  0  0  0  0  0  0  0  0  0  0  0
   -8.0270  -17.3510   34.6290 H   0  0  0  0  0  0  0  0  0  0  0  0
  -13.4570  -17.2410   37.7590 C   0  0  0  0  0  0  0  0  0  0  0  0
  -14.4980  -17.4480   37.8920 H   0  0  0  0  0  0  0  0  0  0  0  0
  -12.7310  -17.7220   38.3820 H   0  0  0  0  0  0  0  0  0  0  0  0
  -13.7720  -17.9290   38.5160 H   0  0  0  0  0  0  0  0  0  0  0  0
  1 21  1  0
  2  1  1  0
  2 13  1  0
  3  2  2  0
  4  3  1  0
  4  9  1  0
  5  4  2  0
  6  5  1  0
  6  7  2  0
  7  8  1  0
  8  9  2  0
  8 12  1  0
  9  1  1  0
 10  5  1  0
 11  7  1  0
 13 14  2  0
 14 15  1  0
 16 15  1  0
 17 13  1  0
 17 16  2  0
 18 17  1  0
 19 18  1  0
 20 18  1  0
 21 22  1  0
 21 23  1  0
 21 24  1  0
M  END
>  <minimizedAffinity>  (172) 
-6.95948696

$$$$

     RDKit          3D

 56 59  0  0  0  0  0  0  0  0999 V2000
  -14.5190  -13.2000   32.4270 C   0  0  0  0  0  0  0  0  0  0  0  0
  -15.5760  -13.7240   33.3540 C   0  0  0  0  0  0  0  0  0  0  0  0
  -15.1870  -14.5590   34.5380 C   0  0  0  0  0  0  0  0  0  0  0  0
  -13.7420  -14.8700   34.7950 C   0  0  0  0  0  0  0  0  0  0  0  0
  -13.0610  -15.6610   35.8730 C   0  0  0  0  0  0  0  0  0  0  0  0
  -11.5850  -15.6260   35.6110 C   0  0  0  0  0  0  0  0  0  0  0  0
  -11.3520  -14.8140   34.3730 N   0  0  0  0  0  0  0  0  0  0  0  0
  -12.6860  -14.3460   33.8680 N   0  0  0  0  0  0  0  0  0  0  0  0
  -13.0740  -13.5110   32.6830 N   0  0  0  0  0  0  0  0  0  0  0  0
  -16.5690  -13.5100   33.1770 H   0  0  0  0  0  0  0  0  0  0  0  0
  -15.9140  -14.9190   35.1760 H   0  0  0  0  0  0  0  0  0  0  0  0
  -13.7390  -16.3630   37.0120 C   0  0  0  0  0  0  0  0  0  0  0  0
  -13.0740  -17.5350   37.6720 C   0  0  0  0  0  0  0  0  0  0  0  0
  -13.7520  -18.2380   38.8110 C   0  0  0  0  0  0  0  0  0  0  0  0
  -15.0940  -17.7690   39.2900 N   0  0  0  0  0  0  0  0  0  0  0  0
  -15.7580  -16.5970   38.6300 C   0  0  0  0  0  0  0  0  0  0  0  0
  -17.1000  -16.1280   39.1090 N   0  0  0  0  0  0  0  0  0  0  0  0
  -15.0810  -15.8950   37.4910 N   0  0  0  0  0  0  0  0  0  0  0  0
  -12.1510  -17.8580   37.3430 H   0  0  0  0  0  0  0  0  0  0  0  0
  -13.2950  -19.0440   39.2650 H   0  0  0  0  0  0  0  0  0  0  0  0
  -17.5450  -16.5890   39.8560 H   0  0  0  0  0  0  0  0  0  0  0  0
  -17.7650  -14.9570   38.4480 C   0  0  0  0  0  0  0  0  0  0  0  0
  -18.3940  -13.8820   39.2840 C   0  0  0  0  0  0  0  0  0  0  0  0
  -19.0580  -12.7100   38.6240 C   0  0  0  0  0  0  0  0  0  0  0  0
  -19.0930  -12.6130   37.1280 C   0  0  0  0  0  0  0  0  0  0  0  0
  -18.4640  -13.6880   36.2920 C   0  0  0  0  0  0  0  0  0  0  0  0
  -17.8000  -14.8600   36.9520 C   0  0  0  0  0  0  0  0  0  0  0  0
  -18.4990  -13.5910   34.7950 O   0  0  0  0  0  0  0  0  0  0  0  0
  -19.1640  -12.4200   34.1350 C   0  0  0  0  0  3  0  0  0  0  0  0
  -19.7930  -11.3450   34.9710 C   0  0  0  0  0  2  0  0  0  0  0  0
  -19.7580  -11.4420   36.4680 O   0  0  0  0  0  1  0  0  0  0  0  0
  -18.3700  -13.9480   40.3130 H   0  0  0  0  0  0  0  0  0  0  0  0
  -19.4920  -11.9710   39.1990 H   0  0  0  0  0  0  0  0  0  0  0  0
  -17.3670  -15.5990   36.3770 H   0  0  0  0  0  0  0  0  0  0  0  0
  -19.1890  -12.3500   33.0670 H   0  0  0  0  0  0  0  0  0  0  0  0
  -19.6380  -11.5840   33.6640 H   0  0  0  0  0  0  0  0  0  0  0  0
  -20.2670  -10.5090   34.5000 H   0  0  0  0  0  0  0  0  0  0  0  0
  -20.2420  -10.5780   35.5670 H   0  0  0  0  0  0  0  0  0  0  0  0
  -10.5260  -16.2880   36.4440 C   0  0  0  0  0  0  0  0  0  0  0  0
  -10.3170  -15.8620   37.8670 C   0  0  0  0  0  0  0  0  0  0  0  0
   -9.2590  -16.5240   38.6990 C   0  0  0  0  0  0  0  0  0  0  0  0
   -8.4100  -17.6100   38.1080 C   0  0  0  0  0  0  0  0  0  0  0  0
   -8.6200  -18.0360   36.6850 C   0  0  0  0  0  0  0  0  0  0  0  0
   -9.6780  -17.3740   35.8530 C   0  0  0  0  0  0  0  0  0  0  0  0
  -10.9010  -15.1150   38.2730 H   0  0  0  0  0  0  0  0  0  0  0  0
   -9.1150  -16.2310   39.6780 H   0  0  0  0  0  0  0  0  0  0  0  0
   -8.0360  -18.7830   36.2790 H   0  0  0  0  0  0  0  0  0  0  0  0
   -9.8220  -17.6670   34.8740 H   0  0  0  0  0  0  0  0  0  0  0  0
   -7.3520  -18.2720   38.9410 C   0  0  0  0  0  0  0  0  0  0  0  0
   -6.2950  -18.9340   39.7740 F   0  0  0  0  0  0  0  0  0  0  0  0
   -6.7410  -16.9330   39.2280 F   0  0  0  0  0  0  0  0  0  0  0  0
   -7.9640  -19.6110   38.6540 F   0  0  0  0  0  0  0  0  0  0  0  0
  -14.9070  -12.3650   31.2420 C   0  0  0  0  0  0  0  0  0  0  0  0
  -14.1540  -11.9920   30.5810 H   0  0  0  0  0  0  0  0  0  0  0  0
  -15.9380  -12.1440   31.0600 H   0  0  0  0  0  0  0  0  0  0  0  0
  -15.1850  -11.7700   30.3980 H   0  0  0  0  0  0  0  0  0  0  0  0
  1  9  2  0
  1  2  1  0
  2  3  2  0
  3  4  1  0
  3 11  1  0
  4  5  2  0
  5 12  1  0
  6  5  1  0
  6 39  1  0
  7  6  2  0
  8  7  1  0
  8  4  1  0
  9  8  1  0
 10  2  1  0
 12 18  2  0
 12 13  1  0
 13 14  2  0
 14 20  1  0
 14 15  1  0
 16 17  1  0
 16 15  2  0
 17 21  1  0
 18 16  1  0
 19 13  1  0
 22 17  1  0
 22 23  1  0
 23 32  1  0
 24 33  1  0
 24 23  2  0
 25 24  1  0
 26 27  1  0
 26 25  2  0
 27 22  2  0
 28 26  1  0
 29 28  1  0
 30 38  1  0
 31 25  1  0
 34 27  1  0
 35 29  1  0
 36 29  1  0
 37 30  1  0
 39 40  1  0
 40 45  1  0
 40 41  2  0
 41 46  1  0
 42 41  1  0
 42 49  1  0
 43 42  2  0
 44 39  2  0
 44 43  1  0
 47 43  1  0
 48 44  1  0
 49 51  1  0
 49 50  1  0
 52 49  1  0
 53  1  1  0
 54 53  1  0
 55 53  1  0
 56 53  1  0
M  END
>  <minimizedAffinity>  (173) 
-10.1015396

$$$$

     RDKit          3D

 71 66  0  0  1  0  0  0  0  0999 V2000
  -16.4240  -16.7990   39.2830 C   0  0  0  0  0  0  0  0  0  0  0  0
  -17.2650  -16.8400   38.0410 C   0  0  0  0  0  0  0  0  0  0  0  0
  -18.3860  -15.8590   37.8620 C   0  0  0  0  0  0  0  0  0  0  0  0
  -18.6660  -14.8370   38.9240 C   0  0  0  0  0  0  0  0  0  0  0  0
  -17.8260  -14.7960   40.1650 C   0  0  0  0  0  0  0  0  0  0  0  0
  -16.7050  -15.7770   40.3450 C   0  0  0  0  0  0  0  0  0  0  0  0
  -15.8640  -15.7360   41.5870 Cl  0  0  0  0  0  0  0  0  0  0  0  0
  -17.0720  -17.5430   37.3110 H   0  0  0  0  0  0  0  0  0  0  0  0
  -18.0190  -14.0940   40.8960 H   0  0  0  0  0  0  0  0  0  0  0  0
  -19.2260  -15.9000   36.6200 N   0  0  0  0  0  0  0  0  0  0  0  0
  -18.7830  -15.1640   35.3900 C   0  0  0  0  0  0  0  0  0  0  0  0
  -17.5000  -14.3880   35.4010 N   0  0  0  0  0  0  0  0  0  0  0  0
  -17.0570  -13.6530   34.1720 C   0  0  0  0  0  3  0  0  0  0  0  0
  -17.8970  -13.6930   32.9300 C   0  0  0  0  0  0  0  0  0  0  0  0
  -17.7180  -13.0720   31.5760 C   0  0  0  0  0  0  0  0  0  0  0  0
  -18.8920  -13.4640   30.7280 C   0  0  0  0  0  0  0  0  0  0  0  0
  -19.7950  -14.3280   31.5570 N   0  0  0  0  0  0  0  0  0  0  0  0
  -19.1800  -14.4690   32.9180 C   0  0  0  0  0  0  0  0  0  0  0  0
  -19.6230  -15.2050   34.1480 N   0  0  0  0  0  2  0  0  0  0  0  0
  -20.0680  -16.4090   36.6120 H   0  0  0  0  0  0  0  0  0  0  0  0
  -16.9270  -12.4790   31.2810 H   0  0  0  0  0  0  0  0  0  0  0  0
  -19.0500  -13.1880   29.7460 H   0  0  0  0  0  0  0  0  0  0  0  0
  -20.6430  -14.7310   31.2600 H   0  0  0  0  0  0  0  0  0  0  0  0
  -15.7730  -12.8760   34.1830 N   0  0  0  0  0  0  0  0  0  0  0  0
  -15.7930  -11.8930   34.2060 H   0  0  0  0  0  0  0  0  0  0  0  0
  -14.4580  -13.6000   34.1600 C   0  0  0  0  0  0  0  0  0  0  0  0
  -13.9540  -14.2770   35.3990 C   0  0  0  0  0  0  0  0  0  0  0  0
  -12.6400  -15.0010   35.3760 C   0  0  0  0  0  0  0  0  0  0  0  0
  -11.8310  -15.0470   34.1140 C   0  0  0  0  0  0  0  0  0  0  0  0
  -12.3370  -14.3690   32.8750 C   0  0  0  0  0  0  0  0  0  0  0  0
  -11.5270  -14.4150   31.6120 F   0  0  0  0  0  0  0  0  0  0  0  0
  -13.6500  -13.6450   32.8980 C   0  0  0  0  0  0  0  0  0  0  0  0
  -14.5110  -14.2460   36.2680 H   0  0  0  0  0  0  0  0  0  0  0  0
  -12.2930  -15.4670   36.2290 H   0  0  0  0  0  0  0  0  0  0  0  0
  -10.9280  -15.5440   34.0980 H   0  0  0  0  0  0  0  0  0  0  0  0
  -14.1550  -12.9670   31.6590 C   0  0  0  0  0  0  0  0  0  0  0  0
  -14.4020  -13.7680   30.4150 N   0  0  0  0  0  0  0  0  0  0  0  0
  -14.4130  -11.4900   31.6640 O   0  0  0  0  0  0  0  0  0  0  0  0
  -14.7340  -13.3230   29.6010 H   0  0  0  0  0  0  0  0  0  0  0  0
  -14.2330  -14.7380   30.4110 H   0  0  0  0  0  0  0  0  0  0  0  0
  -15.3040  -17.7790   39.4630 O   0  0  0  0  0  1  0  0  0  0  0  0
  -11.0880  -16.5920   38.4280 N   0  0  0  0  0 15  0  0  0  0  0  0
  -11.9000  -17.3980   37.4580 C   0  0  0  0  0  2  0  0  0  0  0  0
  -13.3050  -17.7930   37.8020 C   0  0  0  0  0  2  0  0  0  0  0  0
  -13.8990  -17.3840   39.1180 C   0  0  0  0  0  1  0  0  0  0  0  0
  -13.0860  -16.5790   40.0880 C   0  0  0  0  0  2  0  0  0  0  0  0
  -11.6810  -16.1830   39.7430 C   0  0  0  0  0  2  0  0  0  0  0  0
  -11.4770  -17.6900   36.5190 H   0  0  0  0  0  0  0  0  0  0  0  0
  -12.4790  -17.9720   36.7650 H   0  0  0  0  0  0  0  0  0  0  0  0
  -13.8850  -18.3680   37.1110 H   0  0  0  0  0  0  0  0  0  0  0  0
  -14.3080  -18.0760   38.0490 H   0  0  0  0  0  0  0  0  0  0  0  0
  -14.3220  -17.0910   40.0560 H   0  0  0  0  0  0  0  0  0  0  0  0
  -13.5090  -16.2860   41.0270 H   0  0  0  0  0  0  0  0  0  0  0  0
  -12.5070  -16.0040   40.7800 H   0  0  0  0  0  0  0  0  0  0  0  0
  -11.1020  -15.6080   40.4360 H   0  0  0  0  0  0  0  0  0  0  0  0
  -10.6790  -15.9000   39.4970 H   0  0  0  0  0  0  0  0  0  0  0  0
   -9.6830  -16.1970   38.0830 C   0  0  0  0  0  2  0  0  0  0  0  0
   -9.5060  -15.3740   37.4210 H   0  0  0  0  0  0  0  0  0  0  0  0
  -10.5090  -15.6560   37.6680 H   0  0  0  0  0  0  0  0  0  0  0  0
   -8.5260  -16.9540   38.6630 C   0  0  0  0  0  3  0  0  0  0  0  0
   -8.0690  -16.6180   39.5710 H   0  0  0  0  0  0  0  0  0  0  0  0
   -8.8940  -16.0790   39.1570 H   0  0  0  0  0  0  0  0  0  0  0  0
   -8.0090  -18.1800   37.9710 C   0  0  0  0  0  0  0  0  0  0  0  0
   -8.4650  -18.5160   37.0640 H   0  0  0  0  0  0  0  0  0  0  0  0
   -7.1830  -18.7200   38.3850 H   0  0  0  0  0  0  0  0  0  0  0  0
   -7.6390  -19.0550   37.4780 H   0  0  0  0  0  0  0  0  0  0  0  0
  -19.7870  -13.8570   38.7440 O   0  0  0  0  0  0  0  0  0  0  0  0
  -19.5550  -12.5860   37.9810 C   0  0  0  0  0  0  0  0  0  0  0  0
  -18.5920  -12.3790   37.5660 H   0  0  0  0  0  0  0  0  0  0  0  0
  -20.3550  -11.8860   37.8520 H   0  0  0  0  0  0  0  0  0  0  0  0
  -19.3900  -11.6800   37.4370 H   0  0  0  0  0  0  0  0  0  0  0  0
  1 41  1  0
  1  6  1  0
  2  1  2  0
  3  2  1  0
  3  4  2  0
  4  5  1  0
  5  6  2  0
  5  9  1  0
  6  7  1  0
  8  2  1  0
 10  3  1  0
 11 12  2  0
 11 10  1  0
 13 24  1  0
 13 12  1  0
 14 13  1  0
 15 14  1  0
 16 17  1  0
 16 15  2  0
 17 18  1  0
 18 14  2  0
 18 19  1  0
 19 11  1  0
 20 10  1  0
 21 15  1  0
 22 16  1  0
 23 17  1  0
 24 25  1  0
 26 24  1  0
 26 27  1  0
 27 33  1  0
 28 27  2  0
 28 34  1  0
 29 28  1  0
 30 32  1  0
 30 29  2  0
 31 30  1  0
 32 26  2  0
 35 29  1  0
 36 38  2  0
 36 32  1  0
 37 36  1  0
 39 37  1  0
 40 37  1  0
 44 51  1  0
 45 52  1  0
 46 54  1  0
 46 53  1  0
 47 55  1  0
 48 43  1  0
 49 43  1  0
 50 44  1  0
 56 47  1  0
 58 57  1  0
 59 57  1  0
 60 62  1  0
 60 61  1  0
 63 65  1  0
 63 60  1  0
 64 63  1  0
 66 63  1  0
 67  4  1  0
 68 67  1  0
 69 68  1  0
 70 68  1  0
 71 68  1  0
M  END
>  <minimizedAffinity>  (174) 
-8.9113493

$$$$

     RDKit          3D

 73 68  0  0  0  0  0  0  0  0999 V2000
   -9.4990  -16.5160   39.0050 N   0  0  0  0  0  2  0  0  0  0  0  0
  -10.9290  -16.3760   39.4350 C   0  0  0  0  0  0  0  0  0  0  0  0
  -11.4030  -15.8760   40.7680 N   0  0  0  0  0  0  0  0  0  0  0  0
  -12.9030  -15.9020   40.7650 C   0  0  0  0  0  0  0  0  0  0  0  0
  -13.9160  -15.5220   41.8040 C   0  0  0  0  0  0  0  0  0  0  0  0
  -15.3800  -15.6590   41.5100 C   0  0  0  0  0  0  0  0  0  0  0  0
  -15.8320  -16.1740   40.1760 C   0  0  0  0  0  0  0  0  0  0  0  0
  -14.8200  -16.5540   39.1360 C   0  0  0  0  0  0  0  0  0  0  0  0
  -13.3560  -16.4170   39.4300 C   0  0  0  0  0  0  0  0  0  0  0  0
  -12.1350  -16.7100   38.6080 N   0  0  0  0  0  0  0  0  0  0  0  0
   -8.7720  -16.2690   39.6220 H   0  0  0  0  0  0  0  0  0  0  0  0
  -13.6050  -15.1680   42.7220 H   0  0  0  0  0  0  0  0  0  0  0  0
  -16.0770  -15.3980   42.2260 H   0  0  0  0  0  0  0  0  0  0  0  0
  -15.1310  -16.9080   38.2180 H   0  0  0  0  0  0  0  0  0  0  0  0
  -12.1270  -17.0610   37.6890 H   0  0  0  0  0  0  0  0  0  0  0  0
   -9.1760  -17.0330   37.6340 C   0  0  0  0  0  2  0  0  0  0  0  0
   -9.0710  -18.0850   37.4700 H   0  0  0  0  0  0  0  0  0  0  0  0
   -9.3020  -17.7160   38.4480 H   0  0  0  0  0  0  0  0  0  0  0  0
   -8.9980  -16.0740   36.4940 C   0  0  0  0  0  2  0  0  0  0  0  0
   -8.4370  -15.1740   36.6340 H   0  0  0  0  0  0  0  0  0  0  0  0
   -8.5630  -15.8580   37.4470 H   0  0  0  0  0  0  0  0  0  0  0  0
   -9.6080  -16.3780   35.1570 C   0  0  0  0  0  3  0  0  0  0  0  0
   -9.1870  -17.1430   34.5380 H   0  0  0  0  0  0  0  0  0  0  0  0
   -8.7520  -16.9260   35.4920 H   0  0  0  0  0  0  0  0  0  0  0  0
  -13.2060  -14.0720   33.7490 N   0  0  0  0  0 15  0  0  0  0  0  0
  -13.0920  -14.4780   35.1890 C   0  0  0  0  0  2  0  0  0  0  0  0
  -11.8920  -15.2470   35.6580 C   0  0  0  0  0  2  0  0  0  0  0  0
  -10.8070  -15.6090   34.6880 N   0  0  0  0  0  2  0  0  0  0  0  0
  -10.9220  -15.2030   33.2490 C   0  0  0  0  0  3  0  0  0  0  0  0
  -12.1210  -14.4340   32.7790 C   0  0  0  0  0  2  0  0  0  0  0  0
  -13.8660  -14.2190   35.8810 H   0  0  0  0  0  0  0  0  0  0  0  0
  -13.0100  -14.7680   36.2160 H   0  0  0  0  0  0  0  0  0  0  0  0
  -11.8110  -15.5360   36.6850 H   0  0  0  0  0  0  0  0  0  0  0  0
  -11.0370  -15.7950   35.9930 H   0  0  0  0  0  0  0  0  0  0  0  0
  -10.1480  -15.4620   32.5560 H   0  0  0  0  0  0  0  0  0  0  0  0
  -11.0030  -14.9130   32.2210 H   0  0  0  0  0  0  0  0  0  0  0  0
  -12.2030  -14.1450   31.7520 H   0  0  0  0  0  0  0  0  0  0  0  0
  -12.9770  -13.8860   32.4440 H   0  0  0  0  0  0  0  0  0  0  0  0
  -14.4060  -13.3030   33.2800 C   0  0  0  0  0  3  0  0  0  0  0  0
  -15.1800  -13.0450   33.9720 H   0  0  0  0  0  0  0  0  0  0  0  0
  -14.4870  -13.0130   32.2530 H   0  0  0  0  0  0  0  0  0  0  0  0
  -15.2610  -12.7550   32.9450 H   0  0  0  0  0  0  0  0  0  0  0  0
  -17.2970  -16.3100   39.8820 O   0  0  0  0  0  0  0  0  0  0  0  0
  -17.9210  -15.4950   38.7890 C   0  0  0  0  0  0  0  0  0  0  0  0
  -18.0460  -16.0640   37.4060 C   0  0  0  0  0  0  0  0  0  0  0  0
  -18.6710  -15.2480   36.3130 C   0  0  0  0  0  0  0  0  0  0  0  0
  -19.1700  -13.8640   36.6020 C   0  0  0  0  0  0  0  0  0  0  0  0
  -19.0450  -13.2950   37.9840 C   0  0  0  0  0  0  0  0  0  0  0  0
  -18.4200  -14.1100   39.0780 C   0  0  0  0  0  0  0  0  0  0  0  0
  -17.7030  -17.0170   37.2080 H   0  0  0  0  0  0  0  0  0  0  0  0
  -18.7570  -15.6400   35.3620 H   0  0  0  0  0  0  0  0  0  0  0  0
  -19.3880  -12.3420   38.1830 H   0  0  0  0  0  0  0  0  0  0  0  0
  -18.3340  -13.7190   40.0290 H   0  0  0  0  0  0  0  0  0  0  0  0
  -19.7940  -13.0480   35.5090 N   0  0  0  0  0  0  0  0  0  0  0  0
  -19.0240  -12.7620   34.2540 C   0  0  0  0  0  0  0  0  0  0  0  0
  -17.6300  -13.2910   34.0920 O   0  0  0  0  0  0  0  0  0  0  0  0
  -19.6490  -11.9460   33.1610 N   0  0  0  0  0  0  0  0  0  0  0  0
  -20.7090  -12.7010   35.6150 H   0  0  0  0  0  0  0  0  0  0  0  0
  -20.5640  -11.5990   33.2670 H   0  0  0  0  0  0  0  0  0  0  0  0
  -18.8790  -11.6600   31.9060 C   0  0  0  0  0  0  0  0  0  0  0  0
  -19.0950  -12.5040   30.6840 C   0  0  0  0  0  0  0  0  0  0  0  0
  -18.3250  -12.2170   29.4290 C   0  0  0  0  0  0  0  0  0  0  0  0
  -17.3390  -11.0870   29.3950 C   0  0  0  0  0  0  0  0  0  0  0  0
  -17.1230  -10.2440   30.6170 C   0  0  0  0  0  0  0  0  0  0  0  0
  -17.8930  -10.5300   31.8720 C   0  0  0  0  0  0  0  0  0  0  0  0
  -17.6760   -9.6870   33.0930 F   0  0  0  0  0  0  0  0  0  0  0  0
  -19.7740  -13.2810   30.7070 H   0  0  0  0  0  0  0  0  0  0  0  0
  -16.8090  -10.8900   28.5320 H   0  0  0  0  0  0  0  0  0  0  0  0
  -16.4440   -9.4670   30.5940 H   0  0  0  0  0  0  0  0  0  0  0  0
  -18.5410  -13.0610   28.2080 C   0  0  0  0  0  0  0  0  0  0  0  0
  -18.7580  -13.9040   26.9860 F   0  0  0  0  0  0  0  0  0  0  0  0
  -17.8370  -12.0330   27.3730 F   0  0  0  0  0  0  0  0  0  0  0  0
  -19.2460  -14.0890   29.0420 F   0  0  0  0  0  0  0  0  0  0  0  0
  1  2  1  0
  1 11  1  0
  2  3  2  0
  4  3  1  0
  4  5  1  0
  5 12  1  0
  6  5  2  0
  6 13  1  0
  7  6  1  0
  8  9  1  0
  8  7  2  0
  9  4  2  0
 10  9  1  0
 10  2  1  0
 14  8  1  0
 15 10  1  0
 16 18  1  0
 17 16  1  0
 19 20  1  0
 19 21  1  0
 22 24  1  0
 23 22  1  0
 26 31  1  0
 26 32  1  0
 27 34  1  0
 27 33  1  0
 28 22  1  0
 29 28  1  0
 35 29  1  0
 36 29  1  0
 37 30  1  0
 38 30  1  0
 39 40  1  0
 41 39  1  0
 42 39  1  0
 43  7  1  0
 44 49  1  0
 44 43  1  0
 45 44  2  0
 46 47  2  0
 46 45  1  0
 47 48  1  0
 48 52  1  0
 48 49  2  0
 49 53  1  0
 50 45  1  0
 51 46  1  0
 54 58  1  0
 54 47  1  0
 55 54  1  0
 56 55  2  0
 57 59  1  0
 57 55  1  0
 60 57  1  0
 61 67  1  0
 61 60  2  0
 62 61  1  0
 63 62  2  0
 63 64  1  0
 64 65  2  0
 65 60  1  0
 65 66  1  0
 68 63  1  0
 69 64  1  0
 70 73  1  0
 70 62  1  0
 71 70  1  0
 72 70  1  0
M  END
>  <minimizedAffinity>  (175) 
-10.3602304

$$$$

     RDKit          3D

 38 41  0  0  0  0  0  0  0  0999 V2000
  -12.5660  -16.9840   39.7570 N   0  0  0  0  0  0  0  0  0  0  0  0
  -11.4810  -16.6840   38.7650 C   0  0  0  0  0  0  0  0  0  0  0  0
  -10.0420  -16.8120   39.1670 N   0  0  0  0  0  0  0  0  0  0  0  0
   -8.9570  -16.5120   38.1760 C   0  0  0  0  0  0  0  0  0  0  0  0
   -9.3120  -16.0840   36.7820 C   0  0  0  0  0  0  0  0  0  0  0  0
  -10.7510  -15.9560   36.3800 C   0  0  0  0  0  0  0  0  0  0  0  0
  -11.8350  -16.2560   37.3720 N   0  0  0  0  0  0  0  0  0  0  0  0
  -12.3320  -17.2650   40.6710 H   0  0  0  0  0  0  0  0  0  0  0  0
   -7.9670  -16.6000   38.4510 H   0  0  0  0  0  0  0  0  0  0  0  0
   -8.5650  -15.8780   36.1000 H   0  0  0  0  0  0  0  0  0  0  0  0
  -11.1060  -15.5280   34.9880 C   0  0  0  0  0  0  0  0  0  0  0  0
  -10.2300  -15.6530   33.7760 C   0  0  0  0  0  0  0  0  0  0  0  0
  -10.9820  -15.1020   32.6010 N   0  0  0  0  0  0  0  0  0  0  0  0
  -12.3230  -14.6370   33.0860 N   0  0  0  0  0  0  0  0  0  0  0  0
  -13.4840  -14.0070   32.3750 N   0  0  0  0  0  0  0  0  0  0  0  0
  -14.7220  -13.6400   33.1390 C   0  0  0  0  0  0  0  0  0  0  0  0
  -14.7980  -13.9030   34.6130 C   0  0  0  0  0  0  0  0  0  0  0  0
  -13.6370  -14.5330   35.3240 C   0  0  0  0  0  0  0  0  0  0  0  0
  -12.4000  -14.9000   34.5610 C   0  0  0  0  0  0  0  0  0  0  0  0
   -9.2770  -16.0490   33.7550 H   0  0  0  0  0  0  0  0  0  0  0  0
  -15.5210  -13.2070   32.6500 H   0  0  0  0  0  0  0  0  0  0  0  0
  -15.6500  -13.6510   35.1390 H   0  0  0  0  0  0  0  0  0  0  0  0
  -13.6900  -14.7140   36.3390 H   0  0  0  0  0  0  0  0  0  0  0  0
  -16.3110  -15.6820   39.5910 C   0  0  0  0  0  0  0  0  0  0  0  0
  -16.8840  -16.5990   38.5530 C   0  0  0  0  0  0  0  0  0  0  0  0
  -16.0190  -17.6450   37.9160 C   0  0  0  0  0  0  0  0  0  0  0  0
  -14.5780  -17.7740   38.3170 C   0  0  0  0  0  0  0  0  0  0  0  0
  -14.0050  -16.8560   39.3550 C   0  0  0  0  0  0  0  0  0  0  0  0
  -14.8720  -15.8100   39.9930 C   0  0  0  0  0  0  0  0  0  0  0  0
  -17.8750  -16.5120   38.2760 H   0  0  0  0  0  0  0  0  0  0  0  0
  -16.4130  -18.2770   37.2010 H   0  0  0  0  0  0  0  0  0  0  0  0
  -13.9830  -18.4930   37.8790 H   0  0  0  0  0  0  0  0  0  0  0  0
  -14.4770  -15.1790   40.7070 H   0  0  0  0  0  0  0  0  0  0  0  0
  -17.1770  -14.6360   40.2280 O   0  0  0  0  0  0  0  0  0  0  0  0
  -18.5320  -14.3350   39.6580 C   0  0  0  0  0  0  0  0  0  0  0  0
  -18.8800  -14.8670   38.7970 H   0  0  0  0  0  0  0  0  0  0  0  0
  -19.1500  -13.5890   40.1130 H   0  0  0  0  0  0  0  0  0  0  0  0
  -19.4970  -14.1200   39.2530 H   0  0  0  0  0  0  0  0  0  0  0  0
  1  8  1  0
  2  3  2  0
  2  1  1  0
  4  9  1  0
  4  3  1  0
  5  4  2  0
  6  5  1  0
  6  7  2  0
  7  2  1  0
 10  5  1  0
 11  6  1  0
 12 11  1  0
 13 14  1  0
 13 12  2  0
 14 19  1  0
 15 14  1  0
 15 16  2  0
 16 17  1  0
 17 22  1  0
 17 18  2  0
 18 23  1  0
 19 11  2  0
 19 18  1  0
 20 12  1  0
 21 16  1  0
 24 29  1  0
 24 34  1  0
 25 24  2  0
 26 27  2  0
 26 25  1  0
 27 28  1  0
 28  1  1  0
 28 29  2  0
 29 33  1  0
 30 25  1  0
 31 26  1  0
 32 27  1  0
 35 37  1  0
 35 34  1  0
 36 35  1  0
 38 35  1  0
M  END
>  <minimizedAffinity>  (176) 
-8.99375439

$$$$

     RDKit          3D

 69 68  0  0  0  0  0  0  0  0999 V2000
  -18.8420  -11.3180   35.0670 C   0  0  0  0  0  0  0  0  0  0  0  0
  -19.7680  -10.9350   33.9500 C   0  0  0  0  0  0  0  0  0  0  0  0
  -19.4280  -11.2990   32.5360 C   0  0  0  0  0  0  0  0  0  0  0  0
  -18.1630  -12.0470   32.2370 C   0  0  0  0  0  0  0  0  0  0  0  0
  -17.8230  -12.4120   30.8220 N   0  0  0  0  0  0  0  0  0  0  0  0
  -16.5580  -13.1600   30.5240 C   0  0  0  0  0  0  0  0  0  0  0  0
  -15.6320  -13.5430   31.6400 N   0  0  0  0  0  0  0  0  0  0  0  0
  -15.9720  -13.1790   33.0550 C   0  0  0  0  0  0  0  0  0  0  0  0
  -15.0460  -13.5620   34.1710 N   0  0  0  0  0  0  0  0  0  0  0  0
  -17.2370  -12.4310   33.3530 C   0  0  0  0  0  0  0  0  0  0  0  0
  -17.5770  -12.0660   34.7680 C   0  0  0  0  0  0  0  0  0  0  0  0
  -20.6380  -10.4200   34.1560 H   0  0  0  0  0  0  0  0  0  0  0  0
  -20.0650  -11.0350   31.7670 H   0  0  0  0  0  0  0  0  0  0  0  0
  -16.3240  -13.4110   29.5500 H   0  0  0  0  0  0  0  0  0  0  0  0
  -15.2690  -13.3230   35.1000 H   0  0  0  0  0  0  0  0  0  0  0  0
  -16.9400  -12.3300   35.5360 H   0  0  0  0  0  0  0  0  0  0  0  0
  -13.7810  -14.3100   33.8720 C   0  0  0  0  0  0  0  0  0  0  0  0
  -13.8320  -15.7770   33.5620 C   0  0  0  0  0  0  0  0  0  0  0  0
  -12.5660  -16.5250   33.2630 C   0  0  0  0  0  0  0  0  0  0  0  0
  -11.2500  -15.8070   33.2750 C   0  0  0  0  0  0  0  0  0  0  0  0
  -11.1990  -14.3400   33.5860 C   0  0  0  0  0  0  0  0  0  0  0  0
  -12.4640  -13.5920   33.8840 C   0  0  0  0  0  0  0  0  0  0  0  0
  -14.7380  -16.2720   33.5530 H   0  0  0  0  0  0  0  0  0  0  0  0
  -12.6020  -17.5340   33.0490 H   0  0  0  0  0  0  0  0  0  0  0  0
  -10.2930  -13.8460   33.5940 H   0  0  0  0  0  0  0  0  0  0  0  0
  -12.4290  -12.5830   34.0980 H   0  0  0  0  0  0  0  0  0  0  0  0
   -9.9840  -16.5550   32.9770 O   0  0  0  0  0  0  0  0  0  0  0  0
   -9.2670  -17.2840   34.0740 C   0  0  0  0  0  0  0  0  0  0  0  0
   -8.5900  -18.0770   33.8360 H   0  0  0  0  0  0  0  0  0  0  0  0
   -8.7560  -17.8040   34.8570 H   0  0  0  0  0  0  0  0  0  0  0  0
   -9.5000  -16.9010   35.5050 C   0  0  0  0  0  0  0  0  0  0  0  0
   -8.3620  -16.3970   36.3420 C   0  0  0  0  0  0  0  0  0  0  0  0
   -8.5950  -16.0140   37.7730 C   0  0  0  0  0  0  0  0  0  0  0  0
   -9.9660  -16.1360   38.3690 C   0  0  0  0  0  0  0  0  0  0  0  0
  -11.1050  -16.6400   37.5320 C   0  0  0  0  0  0  0  0  0  0  0  0
  -10.8720  -17.0230   36.1010 C   0  0  0  0  0  0  0  0  0  0  0  0
   -7.4180  -16.3130   35.9320 H   0  0  0  0  0  0  0  0  0  0  0  0
   -7.8110  -15.6670   38.3490 H   0  0  0  0  0  0  0  0  0  0  0  0
  -10.1270  -15.8730   39.3530 H   0  0  0  0  0  0  0  0  0  0  0  0
  -11.6550  -17.3700   35.5250 H   0  0  0  0  0  0  0  0  0  0  0  0
  -12.4760  -16.7620   38.1270 C   0  0  0  0  0  0  0  0  0  0  0  0
  -13.8480  -16.8840   38.7230 F   0  0  0  0  0  0  0  0  0  0  0  0
  -13.0730  -16.7690   36.7510 F   0  0  0  0  0  0  0  0  0  0  0  0
  -11.8800  -16.7550   39.5040 F   0  0  0  0  0  0  0  0  0  0  0  0
  -19.6170  -11.1080   38.8640 C   0  0  0  0  0  1  0  0  0  0  0  0
  -19.7930   -9.6770   38.4530 C   0  0  0  0  0  3  0  0  0  0  0  0
  -19.5250   -9.5810   36.9800 C   0  0  0  0  0  0  0  0  0  0  0  0
  -19.1820  -10.9540   36.4810 C   0  0  0  0  0  0  0  0  0  0  0  0
  -19.2390  -11.8980   37.6450 O   0  0  0  0  0  1  0  0  0  0  0  0
  -20.0530   -8.8960   39.0740 H   0  0  0  0  0  0  0  0  0  0  0  0
  -19.5680   -8.7220   36.4100 H   0  0  0  0  0  0  0  0  0  0  0  0
  -19.7880  -11.6550   40.2510 C   0  0  0  0  0  2  0  0  0  0  0  0
  -20.3610  -11.1130   40.9730 H   0  0  0  0  0  0  0  0  0  0  0  0
  -20.2390  -10.7230   39.9840 H   0  0  0  0  0  0  0  0  0  0  0  0
  -19.1540  -12.9630   40.6250 N   0  0  0  0  0  1  0  0  0  0  0  0
  -18.2880  -12.9740   41.1640 H   0  0  0  0  0  0  0  0  0  0  0  0
  -19.7950  -14.2530   40.2050 C   0  0  0  0  0  2  0  0  0  0  0  0
  -20.8610  -14.3370   40.1770 H   0  0  0  0  0  0  0  0  0  0  0  0
  -20.4040  -13.4170   40.4760 H   0  0  0  0  0  0  0  0  0  0  0  0
  -18.9400  -15.4260   39.8260 C   0  0  0  0  0  3  0  0  0  0  0  0
  -19.0670  -16.3640   40.3240 H   0  0  0  0  0  0  0  0  0  0  0  0
  -19.6770  -15.5280   40.5950 H   0  0  0  0  0  0  0  0  0  0  0  0
  -17.9060  -15.2820   38.7480 S   0  0  2  0  0  0  0  0  0  0  0  0
  -16.9910  -14.5950   39.7170 O   0  0  0  0  0  0  0  0  0  0  0  0
  -18.8220  -15.9700   37.7800 O   0  0  0  0  0  0  0  0  0  0  0  0
  -16.8740  -15.1390   37.6700 C   0  0  0  0  0  0  0  0  0  0  0  0
  -17.0710  -15.5130   36.6860 H   0  0  0  0  0  0  0  0  0  0  0  0
  -15.9400  -14.6630   37.8830 H   0  0  0  0  0  0  0  0  0  0  0  0
  -16.1370  -15.0370   36.9000 H   0  0  0  0  0  0  0  0  0  0  0  0
  1 48  1  0
  2 12  1  0
  2  1  2  0
  3  2  1  0
  4  3  2  0
  4 10  1  0
  5  4  1  0
  6  5  2  0
  6  7  1  0
  7  8  2  0
  8 10  1  0
  8  9  1  0
  9 15  1  0
 10 11  2  0
 11  1  1  0
 11 16  1  0
 13  3  1  0
 14  6  1  0
 17 22  1  0
 17  9  1  0
 18 17  2  0
 19 20  2  0
 19 18  1  0
 20 21  1  0
 21 25  1  0
 21 22  2  0
 22 26  1  0
 23 18  1  0
 24 19  1  0
 27 20  1  0
 27 28  1  0
 28 30  1  0
 28 31  1  0
 29 28  1  0
 31 36  2  0
 31 32  1  0
 32 33  2  0
 33 38  1  0
 33 34  1  0
 34 39  1  0
 35 41  1  0
 35 34  2  0
 36 35  1  0
 37 32  1  0
 40 36  1  0
 41 42  1  0
 41 44  1  0
 43 41  1  0
 46 45  1  0
 46 50  1  0
 47 46  1  0
 48 47  2  0
 48 49  1  0
 51 47  1  0
 52 53  1  0
 54 52  1  0
 55 56  1  0
 57 59  1  0
 58 57  1  0
 60 61  1  0
 60 62  1  0
 63 64  2  0
 63 60  1  0
 65 63  2  0
 66 68  1  0
 66 63  1  0
 67 66  1  0
 69 66  1  0
M  END
>  <minimizedAffinity>  (177) 
-7.68891621

$$$$

     RDKit          3D

 42 45  0  0  0  0  0  0  0  0999 V2000
  -17.1900  -15.5820   35.6690 N   0  0  0  0  0  0  0  0  0  0  0  0
  -16.9110  -16.0750   37.0580 C   0  0  0  0  0  0  0  0  0  0  0  0
  -18.0090  -16.7000   37.8660 N   0  0  0  0  0  0  0  0  0  0  0  0
  -17.7310  -17.1930   39.2550 C   0  0  0  0  0  0  0  0  0  0  0  0
  -16.3540  -17.0600   39.8360 C   0  0  0  0  0  0  0  0  0  0  0  0
  -15.2560  -16.4340   39.0280 C   0  0  0  0  0  0  0  0  0  0  0  0
  -15.5350  -15.9420   37.6390 N   0  0  0  0  0  0  0  0  0  0  0  0
  -18.0940  -15.6690   35.2880 H   0  0  0  0  0  0  0  0  0  0  0  0
  -18.4860  -17.6230   39.8110 H   0  0  0  0  0  0  0  0  0  0  0  0
  -16.1620  -17.3990   40.7920 H   0  0  0  0  0  0  0  0  0  0  0  0
  -13.8800  -16.3020   39.6090 C   0  0  0  0  0  0  0  0  0  0  0  0
  -13.5520  -15.9940   41.0390 C   0  0  0  0  0  0  0  0  0  0  0  0
  -12.0590  -15.9550   41.1760 N   0  0  0  0  0  0  0  0  0  0  0  0
  -11.4630  -16.2400   39.8290 N   0  0  0  0  0  0  0  0  0  0  0  0
  -10.0420  -16.3310   39.3590 N   0  0  0  0  0  0  0  0  0  0  0  0
   -9.7450  -16.6370   37.9210 C   0  0  0  0  0  0  0  0  0  0  0  0
  -10.8710  -16.8510   36.9520 C   0  0  0  0  0  0  0  0  0  0  0  0
  -12.2920  -16.7590   37.4220 C   0  0  0  0  0  0  0  0  0  0  0  0
  -12.5890  -16.4540   38.8600 C   0  0  0  0  0  0  0  0  0  0  0  0
  -14.2340  -15.8360   41.7970 H   0  0  0  0  0  0  0  0  0  0  0  0
   -8.7670  -16.7000   37.5970 H   0  0  0  0  0  0  0  0  0  0  0  0
  -10.6670  -17.0610   35.9620 H   0  0  0  0  0  0  0  0  0  0  0  0
  -13.0660  -16.9070   36.7560 H   0  0  0  0  0  0  0  0  0  0  0  0
  -13.6220  -14.9360   34.0550 C   0  0  0  0  0  0  0  0  0  0  0  0
  -14.7210  -15.5620   34.8640 C   0  0  0  0  0  0  0  0  0  0  0  0
  -16.0920  -14.9560   34.8610 C   0  0  0  0  0  0  0  0  0  0  0  0
  -16.3670  -13.7240   34.0500 C   0  0  0  0  0  0  0  0  0  0  0  0
  -15.2690  -13.0990   33.2410 C   0  0  0  0  0  0  0  0  0  0  0  0
  -13.8970  -13.7050   33.2440 C   0  0  0  0  0  0  0  0  0  0  0  0
  -14.5320  -16.4090   35.4210 H   0  0  0  0  0  0  0  0  0  0  0  0
  -17.3100  -13.3080   34.0480 H   0  0  0  0  0  0  0  0  0  0  0  0
  -13.1410  -13.2740   32.6880 H   0  0  0  0  0  0  0  0  0  0  0  0
  -12.2500  -15.5430   34.0580 O   0  0  0  0  0  0  0  0  0  0  0  0
  -11.1510  -14.9140   33.2550 C   0  0  0  0  0  0  0  0  0  0  0  0
  -10.1730  -15.3460   33.2560 H   0  0  0  0  0  0  0  0  0  0  0  0
  -11.3460  -14.0330   32.6790 H   0  0  0  0  0  0  0  0  0  0  0  0
  -10.3670  -14.4650   32.6810 H   0  0  0  0  0  0  0  0  0  0  0  0
  -15.5430  -11.8670   32.4300 O   0  0  0  0  0  0  0  0  0  0  0  0
  -16.4210  -10.7840   32.9840 C   0  0  0  0  0  0  0  0  0  0  0  0
  -16.8510  -10.8910   33.9580 H   0  0  0  0  0  0  0  0  0  0  0  0
  -16.6170   -9.9060   32.4060 H   0  0  0  0  0  0  0  0  0  0  0  0
  -17.0470  -10.0120   33.3790 H   0  0  0  0  0  0  0  0  0  0  0  0
  1  2  1  0
  2  7  1  0
  2  3  2  0
  3  4  1  0
  4  9  1  0
  4  5  2  0
  5 10  1  0
  6 11  1  0
  6  5  1  0
  7  6  2  0
  8  1  1  0
 11 12  1  0
 12 13  2  0
 12 20  1  0
 14 13  1  0
 15 14  1  0
 16 15  2  0
 17 18  2  0
 17 16  1  0
 18 19  1  0
 19 11  2  0
 19 14  1  0
 21 16  1  0
 22 17  1  0
 23 18  1  0
 24 33  1  0
 24 25  1  0
 25 30  1  0
 26 25  2  0
 26  1  1  0
 27 26  1  0
 28 29  1  0
 28 27  2  0
 29 24  2  0
 31 27  1  0
 32 29  1  0
 34 35  1  0
 34 33  1  0
 36 34  1  0
 37 34  1  0
 38 39  1  0
 38 28  1  0
 39 42  1  0
 39 40  1  0
 41 39  1  0
M  END
>  <minimizedAffinity>  (178) 
-8.49368382

$$$$

     RDKit          3D

 46 48  0  0  0  0  0  0  0  0999 V2000
  -13.1900  -15.7780   36.1720 C   0  0  0  0  0  0  0  0  0  0  0  0
  -11.7530  -16.0480   36.5090 C   0  0  0  0  0  0  0  0  0  0  0  0
  -11.4070  -16.8650   37.7190 C   0  0  0  0  0  0  0  0  0  0  0  0
  -12.4980  -17.4100   38.5920 C   0  0  0  0  0  0  0  0  0  0  0  0
  -13.9340  -17.1390   38.2560 C   0  0  0  0  0  0  0  0  0  0  0  0
  -14.2800  -16.3230   37.0460 C   0  0  0  0  0  0  0  0  0  0  0  0
  -11.0030  -15.6730   35.9080 H   0  0  0  0  0  0  0  0  0  0  0  0
  -12.2600  -17.9720   39.4250 H   0  0  0  0  0  0  0  0  0  0  0  0
   -9.9710  -17.1350   38.0550 C   0  0  0  0  0  0  0  0  0  0  0  0
   -9.4910  -18.5480   38.2160 C   0  0  0  0  0  0  0  0  0  0  0  0
   -8.0550  -18.8180   38.5520 C   0  0  0  0  0  0  0  0  0  0  0  0
   -7.0980  -17.6770   38.7280 C   0  0  0  0  0  0  0  0  0  0  0  0
   -7.5770  -16.2650   38.5670 C   0  0  0  0  0  0  0  0  0  0  0  0
   -9.0140  -15.9940   38.2310 C   0  0  0  0  0  0  0  0  0  0  0  0
  -10.1500  -19.3330   38.0950 H   0  0  0  0  0  0  0  0  0  0  0  0
   -7.7250  -19.7900   38.6630 H   0  0  0  0  0  0  0  0  0  0  0  0
   -6.1090  -17.8630   38.9590 H   0  0  0  0  0  0  0  0  0  0  0  0
   -6.9190  -15.4790   38.6880 H   0  0  0  0  0  0  0  0  0  0  0  0
   -9.3440  -15.0220   38.1200 H   0  0  0  0  0  0  0  0  0  0  0  0
  -14.2270  -13.3290   32.5420 C   0  0  0  0  0  0  0  0  0  0  0  0
  -12.8320  -13.8490   32.7220 C   0  0  0  0  0  0  0  0  0  0  0  0
  -12.4860  -14.6650   33.9320 C   0  0  0  0  0  0  0  0  0  0  0  0
  -13.5360  -14.9610   34.9620 C   0  0  0  0  0  0  0  0  0  0  0  0
  -14.9310  -14.4410   34.7820 C   0  0  0  0  0  0  0  0  0  0  0  0
  -15.2770  -13.6250   33.5720 C   0  0  0  0  0  0  0  0  0  0  0  0
  -12.1100  -13.6450   32.0140 H   0  0  0  0  0  0  0  0  0  0  0  0
  -11.5260  -15.0230   34.0560 H   0  0  0  0  0  0  0  0  0  0  0  0
  -15.6530  -14.6450   35.4910 H   0  0  0  0  0  0  0  0  0  0  0  0
  -16.2370  -13.2670   33.4490 H   0  0  0  0  0  0  0  0  0  0  0  0
  -14.5730  -12.5120   31.3330 N   0  0  0  0  0  0  0  0  0  0  0  0
  -13.8600  -12.2010   30.7290 H   0  0  0  0  0  0  0  0  0  0  0  0
  -16.0050  -12.1710   31.0420 S   0  0  2  0  0  0  0  0  0  0  0  0
  -16.1840  -13.4980   30.3660 O   0  0  0  0  0  0  0  0  0  0  0  0
  -15.8260  -10.8440   31.7190 O   0  0  0  0  0  0  0  0  0  0  0  0
  -17.4360  -11.8300   30.7520 C   0  0  0  0  0  0  0  0  0  0  0  0
  -18.0580  -12.5280   30.2300 H   0  0  0  0  0  0  0  0  0  0  0  0
  -17.8360  -10.8880   31.0670 H   0  0  0  0  0  0  0  0  0  0  0  0
  -18.4580  -11.5860   30.5450 H   0  0  0  0  0  0  0  0  0  0  0  0
  -15.0250  -17.6850   39.1290 C   0  0  0  0  0  0  0  0  0  0  0  0
  -14.9700  -19.1090   39.5960 N   0  0  0  0  0  0  0  0  0  0  0  0
  -16.1700  -16.8060   39.5360 O   0  0  0  0  0  0  0  0  0  0  0  0
  -14.2180  -19.6860   39.3290 H   0  0  0  0  0  0  0  0  0  0  0  0
  -15.6860  -19.4670   40.1690 H   0  0  0  0  0  0  0  0  0  0  0  0
  -15.7170  -16.0520   36.7090 N   0  0  0  0  0  0  0  0  0  0  0  0
  -16.4330  -16.4100   37.2830 H   0  0  0  0  0  0  0  0  0  0  0  0
  -15.9440  -15.5170   35.9160 H   0  0  0  0  0  0  0  0  0  0  0  0
  1  2  2  0
  1  6  1  0
  2  3  1  0
  3  9  1  0
  3  4  2  0
  4  8  1  0
  5  4  1  0
  5 39  1  0
  6  5  2  0
  7  2  1  0
  9 10  2  0
  9 14  1  0
 10 11  1  0
 11 16  1  0
 11 12  2  0
 12 17  1  0
 13 18  1  0
 13 12  1  0
 14 13  2  0
 15 10  1  0
 19 14  1  0
 20 21  2  0
 20 25  1  0
 21 22  1  0
 22 27  1  0
 22 23  2  0
 23  1  1  0
 24 23  1  0
 24 28  1  0
 25 24  2  0
 26 21  1  0
 29 25  1  0
 30 20  1  0
 31 30  1  0
 32 30  1  0
 32 34  2  0
 33 32  2  0
 35 32  1  0
 35 37  1  0
 36 35  1  0
 38 35  1  0
 39 41  2  0
 39 40  1  0
 40 43  1  0
 42 40  1  0
 44  6  1  0
 44 45  1  0
 46 44  1  0
M  END
>  <minimizedAffinity>  (179) 
-9.75148296

$$$$

     RDKit          3D

 46 43  0  0  0  0  0  0  0  0999 V2000
  -11.8440  -16.6930   38.3650 C   0  0  0  0  0  0  0  0  0  0  0  0
  -11.4360  -15.9730   39.6170 C   0  0  0  0  0  0  0  0  0  0  0  0
  -12.3270  -16.0020   40.8240 C   0  0  0  0  0  0  0  0  0  0  0  0
  -13.6260  -16.7500   40.7780 N   0  0  0  0  0  0  0  0  0  0  0  0
  -14.0350  -17.4700   39.5260 C   0  0  0  0  0  0  0  0  0  0  0  0
  -15.3340  -18.2180   39.4820 N   0  0  0  0  0  0  0  0  0  0  0  0
  -13.1440  -17.4420   38.3200 N   0  0  0  0  0  0  0  0  0  0  0  0
  -10.5420  -15.4580   39.6480 H   0  0  0  0  0  0  0  0  0  0  0  0
  -12.0470  -15.5070   41.6840 H   0  0  0  0  0  0  0  0  0  0  0  0
  -15.6010  -18.6910   38.6600 H   0  0  0  0  0  0  0  0  0  0  0  0
  -12.4650  -14.6330   33.9960 C   0  0  0  0  0  0  0  0  0  0  0  0
  -11.3010  -14.8580   33.0760 C   0  0  0  0  0  0  0  0  0  0  0  0
  -10.1160  -15.6470   33.5460 N   0  0  0  0  0  0  0  0  0  0  0  0
  -10.0930  -16.2130   34.9350 N   0  0  0  0  0  0  0  0  0  0  0  0
   -9.0710  -17.0270   35.6710 N   0  0  0  0  0  0  0  0  0  0  0  0
   -9.6020  -17.3060   37.0460 C   0  0  0  0  0  0  0  0  0  0  0  0
  -10.9530  -16.6640   37.1590 C   0  0  0  0  0  0  0  0  0  0  0  0
  -11.2570  -15.9890   35.8540 C   0  0  0  0  0  0  0  0  0  0  0  0
  -12.4430  -15.1990   35.3850 C   0  0  0  0  0  0  0  0  0  0  0  0
  -13.2810  -14.0900   33.6730 H   0  0  0  0  0  0  0  0  0  0  0  0
  -11.3170  -14.4680   32.1210 H   0  0  0  0  0  0  0  0  0  0  0  0
   -9.1220  -17.8440   37.7840 H   0  0  0  0  0  0  0  0  0  0  0  0
  -13.2430  -15.0450   36.0180 H   0  0  0  0  0  0  0  0  0  0  0  0
  -16.2250  -18.2470   40.6880 C   0  0  0  0  0  0  0  0  0  0  0  0
  -15.9310  -18.7970   41.5560 H   0  0  0  0  0  0  0  0  0  0  0  0
  -16.8600  -18.2670   41.5480 H   0  0  0  0  0  0  0  0  0  0  0  0
  -17.5270  -17.5030   40.6750 C   0  0  0  0  0  0  0  0  0  0  0  0
  -17.7950  -16.8770   41.5000 H   0  0  0  0  0  0  0  0  0  0  0  0
  -18.4570  -16.9730   40.6650 H   0  0  0  0  0  0  0  0  0  0  0  0
  -18.4560  -17.6380   39.5040 C   0  0  0  0  0  0  0  0  0  0  0  0
  -19.0600  -18.5140   39.3990 H   0  0  0  0  0  0  0  0  0  0  0  0
  -19.1170  -17.7340   38.6690 H   0  0  0  0  0  0  0  0  0  0  0  0
  -18.5350  -16.5450   38.4800 N   0  0  0  0  0  1  0  0  0  0  0  0
  -17.4290  -16.3730   37.4800 C   0  0  0  0  0  2  0  0  0  0  0  0
  -17.5080  -15.2790   36.4560 C   0  0  0  0  0  2  0  0  0  0  0  0
  -18.6900  -14.3580   36.4330 O   0  0  0  0  0 15  0  0  0  0  0  0
  -19.7950  -14.5290   37.4330 C   0  0  0  0  0  2  0  0  0  0  0  0
  -19.7170  -15.6220   38.4560 C   0  0  0  0  0  2  0  0  0  0  0  0
  -16.5860  -17.0300   37.4970 H   0  0  0  0  0  0  0  0  0  0  0  0
  -16.6420  -16.2500   36.7670 H   0  0  0  0  0  0  0  0  0  0  0  0
  -16.7200  -15.1570   35.7430 H   0  0  0  0  0  0  0  0  0  0  0  0
  -17.5640  -14.4990   35.7260 H   0  0  0  0  0  0  0  0  0  0  0  0
  -20.6390  -13.8710   37.4160 H   0  0  0  0  0  0  0  0  0  0  0  0
  -20.5830  -14.6510   38.1460 H   0  0  0  0  0  0  0  0  0  0  0  0
  -20.5050  -15.7450   39.1700 H   0  0  0  0  0  0  0  0  0  0  0  0
  -19.6620  -16.4020   39.1870 H   0  0  0  0  0  0  0  0  0  0  0  0
  1  2  1  0
  2  8  1  0
  2  3  2  0
  3  9  1  0
  4  3  1  0
  5  4  2  0
  6  5  1  0
  6 24  1  0
  7  1  2  0
  7  5  1  0
 10  6  1  0
 11 19  2  0
 12 13  2  0
 12 11  1  0
 13 14  1  0
 14 15  1  0
 14 18  1  0
 15 16  2  0
 16 17  1  0
 16 22  1  0
 17  1  1  0
 18 17  2  0
 19 18  1  0
 19 23  1  0
 20 11  1  0
 21 12  1  0
 24 26  1  0
 24 25  1  0
 27 24  1  0
 27 28  1  0
 29 27  1  0
 30 27  1  0
 31 30  1  0
 32 30  1  0
 33 30  1  0
 34 39  1  0
 37 44  1  0
 38 45  1  0
 38 46  1  0
 40 34  1  0
 41 35  1  0
 42 35  1  0
 43 37  1  0
M  END
>  <minimizedAffinity>  (180) 
-9.73782539

$$$$

     RDKit          3D

 54 49  0  0  0  0  0  0  0  0999 V2000
  -12.3980  -15.5410   34.9640 N   0  0  0  0  0 15  0  0  0  0  0  0
  -11.3320  -15.4500   33.9120 C   0  0  0  0  0  2  0  0  0  0  0  0
  -10.0470  -15.9390   34.5110 N   0  0  0  0  0  2  0  0  0  0  0  0
  -10.3180  -16.3320   35.9330 C   0  0  0  0  0  0  0  0  0  0  0  0
  -11.7710  -16.0860   36.2130 C   0  0  0  0  0  3  0  0  0  0  0  0
  -11.4610  -15.1110   32.9460 H   0  0  0  0  0  0  0  0  0  0  0  0
  -16.7170  -14.3810   34.4610 N   0  0  0  0  0  2  0  0  0  0  0  0
  -16.3550  -15.5950   35.2640 C   0  0  0  0  0  3  0  0  0  0  0  0
  -14.9150  -15.9820   35.4320 C   0  0  0  0  0  2  0  0  0  0  0  0
  -13.8370  -15.1540   34.7960 C   0  0  0  0  0  1  0  0  0  0  0  0
  -14.1990  -13.9400   33.9930 C   0  0  0  0  0  2  0  0  0  0  0  0
  -15.6390  -13.5540   33.8250 C   0  0  0  0  0  2  0  0  0  0  0  0
  -17.1240  -16.1850   35.7180 H   0  0  0  0  0  0  0  0  0  0  0  0
  -16.0970  -16.4610   35.8380 H   0  0  0  0  0  0  0  0  0  0  0  0
  -14.6570  -16.8480   36.0050 H   0  0  0  0  0  0  0  0  0  0  0  0
  -13.8880  -16.2570   35.5520 H   0  0  0  0  0  0  0  0  0  0  0  0
  -13.0690  -14.5640   34.3430 H   0  0  0  0  0  0  0  0  0  0  0  0
  -13.4300  -13.3500   33.5390 H   0  0  0  0  0  0  0  0  0  0  0  0
  -14.4570  -13.0740   33.4200 H   0  0  0  0  0  0  0  0  0  0  0  0
  -15.8970  -12.6870   33.2520 H   0  0  0  0  0  0  0  0  0  0  0  0
  -16.6660  -13.2780   33.7060 H   0  0  0  0  0  0  0  0  0  0  0  0
  -18.1560  -13.9940   34.2930 C   0  0  0  0  0  0  0  0  0  0  0  0
  -18.9250  -14.5850   34.7470 H   0  0  0  0  0  0  0  0  0  0  0  0
  -18.4140  -13.1280   33.7200 H   0  0  0  0  0  0  0  0  0  0  0  0
  -19.1830  -13.7190   34.1740 H   0  0  0  0  0  0  0  0  0  0  0  0
   -9.3130  -16.8770   36.9050 C   0  0  0  0  0  0  0  0  0  0  0  0
   -9.2080  -18.3560   37.1250 C   0  0  0  0  0  0  0  0  0  0  0  0
   -8.2030  -18.9000   38.0970 C   0  0  0  0  0  0  0  0  0  0  0  0
   -7.3020  -17.9640   38.8470 C   0  0  0  0  0  0  0  0  0  0  0  0
   -6.2970  -18.5080   39.8180 F   0  0  0  0  0  0  0  0  0  0  0  0
   -7.4070  -16.4840   38.6260 C   0  0  0  0  0  0  0  0  0  0  0  0
   -8.4120  -15.9410   37.6550 C   0  0  0  0  0  0  0  0  0  0  0  0
   -9.8280  -19.0000   36.6090 H   0  0  0  0  0  0  0  0  0  0  0  0
   -8.1310  -19.9180   38.2490 H   0  0  0  0  0  0  0  0  0  0  0  0
   -6.7880  -15.8410   39.1420 H   0  0  0  0  0  0  0  0  0  0  0  0
   -8.4840  -14.9220   37.5030 H   0  0  0  0  0  0  0  0  0  0  0  0
  -12.4740  -16.3410   37.5130 C   0  0  0  0  0  0  0  0  0  0  0  0
  -11.8290  -15.9400   38.8060 C   0  0  0  0  0  0  0  0  0  0  0  0
  -12.5330  -16.1940   40.1070 C   0  0  0  0  0  0  0  0  0  0  0  0
  -13.8810  -16.8500   40.1130 N   0  0  0  0  0  0  0  0  0  0  0  0
  -14.5260  -17.2510   38.8200 C   0  0  0  0  0  0  0  0  0  0  0  0
  -15.8760  -17.9070   38.8260 N   0  0  0  0  0  0  0  0  0  0  0  0
  -13.8230  -16.9970   37.5200 N   0  0  0  0  0  0  0  0  0  0  0  0
  -10.9000  -15.4880   38.8020 H   0  0  0  0  0  0  0  0  0  0  0  0
  -12.0890  -15.9180   40.9960 H   0  0  0  0  0  0  0  0  0  0  0  0
  -16.2990  -18.1700   37.9770 H   0  0  0  0  0  0  0  0  0  0  0  0
  -16.5800  -18.1610   40.1270 C   0  0  0  0  0  0  0  0  0  0  0  0
  -16.0190  -18.4520   40.9900 H   0  0  0  0  0  0  0  0  0  0  0  0
  -17.0820  -18.3430   41.0530 H   0  0  0  0  0  0  0  0  0  0  0  0
  -18.0690  -18.0070   40.2150 C   0  0  0  0  0  0  0  0  0  0  0  0
  -18.5240  -17.7150   41.1390 H   0  0  0  0  0  0  0  0  0  0  0  0
  -19.1320  -17.8980   40.2770 H   0  0  0  0  0  0  0  0  0  0  0  0
  -18.9220  -18.2620   39.0080 O   0  0  0  0  0  0  0  0  0  0  0  0
  -18.5110  -18.5270   38.1700 H   0  0  0  0  0  0  0  0  0  0  0  0
  2  3  1  0
  3  4  1  0
  4  5  2  0
  4 26  1  0
  5 37  1  0
  6  2  1  0
  7  8  1  0
  8 13  1  0
  8 14  1  0
  9 16  1  0
  9 15  1  0
 17 10  1  0
 18 11  1  0
 19 11  1  0
 20 12  1  0
 21 12  1  0
 22  7  1  0
 22 23  1  0
 24 22  1  0
 25 22  1  0
 26 27  2  0
 26 32  1  0
 27 28  1  0
 28 34  1  0
 28 29  2  0
 29 30  1  0
 31 29  1  0
 31 35  1  0
 32 31  2  0
 33 27  1  0
 36 32  1  0
 37 43  2  0
 37 38  1  0
 38 39  2  0
 39 40  1  0
 39 45  1  0
 41 42  1  0
 41 40  2  0
 42 47  1  0
 43 41  1  0
 44 38  1  0
 46 42  1  0
 47 50  1  0
 47 48  1  0
 47 49  1  0
 50 52  1  0
 50 51  1  0
 53 50  1  0
 54 53  1  0
M  END
>  <minimizedAffinity>  (181) 
-10.8685837

$$$$

     RDKit          3D

 37 40  0  0  0  0  0  0  0  0999 V2000
  -12.9720  -15.1870   35.1900 C   0  0  0  0  0  0  0  0  0  0  0  0
  -14.3920  -15.4390   35.6030 C   0  0  0  0  0  0  0  0  0  0  0  0
  -15.5170  -14.7750   34.8650 C   0  0  0  0  0  0  0  0  0  0  0  0
  -15.2220  -13.8590   33.7140 C   0  0  0  0  0  0  0  0  0  0  0  0
  -13.8020  -13.6070   33.3010 C   0  0  0  0  0  0  0  0  0  0  0  0
  -12.6770  -14.2710   34.0390 N   0  0  0  0  0  0  0  0  0  0  0  0
  -14.5960  -16.0690   36.3950 H   0  0  0  0  0  0  0  0  0  0  0  0
  -15.9950  -13.4030   33.2070 H   0  0  0  0  0  0  0  0  0  0  0  0
  -13.5980  -12.9770   32.5100 H   0  0  0  0  0  0  0  0  0  0  0  0
   -8.4740  -17.8420   38.1420 F   0  0  0  0  0  0  0  0  0  0  0  0
   -9.5980  -17.1780   37.4040 C   0  0  0  0  0  0  0  0  0  0  0  0
   -9.3260  -16.4420   36.1260 C   0  0  0  0  0  0  0  0  0  0  0  0
  -10.4500  -15.7780   35.3880 C   0  0  0  0  0  0  0  0  0  0  0  0
  -11.8480  -15.8510   35.9280 C   0  0  0  0  0  0  0  0  0  0  0  0
  -12.1210  -16.5870   37.2060 C   0  0  0  0  0  0  0  0  0  0  0  0
  -10.9960  -17.2510   37.9440 C   0  0  0  0  0  0  0  0  0  0  0  0
   -8.3640  -16.3920   35.7540 H   0  0  0  0  0  0  0  0  0  0  0  0
  -10.2620  -15.2710   34.5090 H   0  0  0  0  0  0  0  0  0  0  0  0
  -13.0820  -16.6370   37.5780 H   0  0  0  0  0  0  0  0  0  0  0  0
  -11.1840  -17.7580   38.8230 H   0  0  0  0  0  0  0  0  0  0  0  0
  -16.9370  -15.0270   35.2780 C   0  0  0  0  0  0  0  0  0  0  0  0
  -18.1580  -14.7400   34.4560 C   0  0  0  0  0  0  0  0  0  0  0  0
  -19.3610  -15.1460   35.2550 N   0  0  0  0  0  0  0  0  0  0  0  0
  -18.8830  -15.6840   36.5700 N   0  0  0  0  0  0  0  0  0  0  0  0
  -17.3840  -15.6110   36.5850 C   0  0  0  0  0  0  0  0  0  0  0  0
  -18.1690  -14.3340   33.5070 H   0  0  0  0  0  0  0  0  0  0  0  0
  -20.3000  -15.0720   34.9670 H   0  0  0  0  0  0  0  0  0  0  0  0
  -16.4910  -16.0450   37.7080 C   0  0  0  0  0  0  0  0  0  0  0  0
  -16.0070  -17.4620   37.7770 C   0  0  0  0  0  0  0  0  0  0  0  0
  -15.1140  -17.8980   38.9000 C   0  0  0  0  0  0  0  0  0  0  0  0
  -14.7040  -16.9140   39.9570 C   0  0  0  0  0  0  0  0  0  0  0  0
  -15.1890  -15.4950   39.8890 C   0  0  0  0  0  0  0  0  0  0  0  0
  -16.0820  -15.0610   38.7650 N   0  0  0  0  0  0  0  0  0  0  0  0
  -16.2880  -18.1400   37.0500 H   0  0  0  0  0  0  0  0  0  0  0  0
  -14.7800  -18.8730   38.9470 H   0  0  0  0  0  0  0  0  0  0  0  0
  -14.0900  -17.2120   40.7300 H   0  0  0  0  0  0  0  0  0  0  0  0
  -14.9070  -14.8190   40.6150 H   0  0  0  0  0  0  0  0  0  0  0  0
  1  2  1  0
  1 14  1  0
  2  7  1  0
  3 21  1  0
  3  2  2  0
  4  3  1  0
  5  4  2  0
  5  6  1  0
  6  1  2  0
  8  4  1  0
  9  5  1  0
 11 16  1  0
 11 10  1  0
 12 11  2  0
 13 14  2  0
 13 12  1  0
 14 15  1  0
 15 19  1  0
 15 16  2  0
 16 20  1  0
 17 12  1  0
 18 13  1  0
 21 25  1  0
 22 23  1  0
 22 21  2  0
 23 24  1  0
 24 25  2  0
 25 28  1  0
 26 22  1  0
 27 23  1  0
 28 29  2  0
 28 33  1  0
 29 30  1  0
 30 35  1  0
 30 31  2  0
 31 36  1  0
 32 31  1  0
 32 37  1  0
 33 32  2  0
 34 29  1  0
M  END
>  <minimizedAffinity>  (182) 
-8.67764759

$$$$

     RDKit          3D

 29 31  0  0  0  0  0  0  0  0999 V2000
  -10.0490  -16.3360   36.7560 C   0  0  0  0  0  0  0  0  0  0  0  0
  -10.6260  -15.5790   35.5970 C   0  0  0  0  0  0  0  0  0  0  0  0
  -12.1130  -15.4290   35.4650 C   0  0  0  0  0  0  0  0  0  0  0  0
  -13.0220  -16.0360   36.4920 C   0  0  0  0  0  0  0  0  0  0  0  0
  -12.4440  -16.7930   37.6510 C   0  0  0  0  0  0  0  0  0  0  0  0
  -10.9580  -16.9430   37.7830 C   0  0  0  0  0  0  0  0  0  0  0  0
  -10.0010  -15.1620   34.8900 H   0  0  0  0  0  0  0  0  0  0  0  0
  -12.5100  -14.9080   34.6670 H   0  0  0  0  0  0  0  0  0  0  0  0
  -13.0700  -17.2100   38.3590 H   0  0  0  0  0  0  0  0  0  0  0  0
  -10.5600  -17.4640   38.5810 H   0  0  0  0  0  0  0  0  0  0  0  0
  -14.5080  -15.8850   36.3610 C   0  0  0  0  0  0  0  0  0  0  0  0
  -15.5160  -16.1000   37.4510 C   0  0  0  0  0  0  0  0  0  0  0  0
  -16.8790  -15.8410   36.8800 C   0  0  0  0  0  0  0  0  0  0  0  0
  -18.2490  -15.8990   37.4870 C   0  0  0  0  0  0  0  0  0  0  0  0
  -19.4540  -15.5810   36.6520 N   0  0  0  0  0  0  0  0  0  0  0  0
  -19.2880  -15.2060   35.2090 C   0  0  0  0  0  0  0  0  0  0  0  0
  -17.9180  -15.1490   34.6010 N   0  0  0  0  0  0  0  0  0  0  0  0
  -16.7130  -15.4660   35.4370 C   0  0  0  0  0  0  0  0  0  0  0  0
  -15.2480  -15.4930   35.1160 O   0  0  0  0  0  0  0  0  0  0  0  0
  -15.3080  -16.3780   38.4230 H   0  0  0  0  0  0  0  0  0  0  0  0
  -20.1170  -14.9870   34.6340 H   0  0  0  0  0  0  0  0  0  0  0  0
  -18.4150  -16.2740   38.9300 N   0  0  0  0  0  0  0  0  0  0  0  0
  -17.6240  -16.4820   39.4780 H   0  0  0  0  0  0  0  0  0  0  0  0
  -19.3140  -16.3110   39.3280 H   0  0  0  0  0  0  0  0  0  0  0  0
   -8.5620  -16.4870   36.8870 O   0  0  0  0  0  0  0  0  0  0  0  0
   -7.9140  -16.3810   38.2360 C   0  0  0  0  0  0  0  0  0  0  0  0
   -8.5120  -16.1990   39.1050 H   0  0  0  0  0  0  0  0  0  0  0  0
   -6.8540  -16.4890   38.3300 H   0  0  0  0  0  0  0  0  0  0  0  0
   -7.4520  -16.3060   39.1980 H   0  0  0  0  0  0  0  0  0  0  0  0
  1 25  1  0
  1  6  1  0
  2  1  2  0
  3  2  1  0
  3  4  2  0
  4  5  1  0
  5  6  2  0
  5  9  1  0
  6 10  1  0
  7  2  1  0
  8  3  1  0
 11  4  1  0
 11 12  2  0
 12 20  1  0
 13 12  1  0
 13 14  2  0
 14 22  1  0
 15 14  1  0
 16 15  2  0
 17 16  1  0
 17 18  2  0
 18 13  1  0
 19 18  1  0
 19 11  1  0
 21 16  1  0
 22 24  1  0
 22 23  1  0
 25 26  1  0
 26 28  1  0
 26 27  1  0
 26 29  1  0
M  END
>  <minimizedAffinity>  (183) 
-7.68548727

$$$$

     RDKit          3D

 54 57  0  0  0  0  0  0  0  0999 V2000
  -12.2910  -14.8390   34.0010 C   0  0  0  0  0  0  0  0  0  0  0  0
  -10.9470  -15.0120   33.3580 C   0  0  0  0  0  0  0  0  0  0  0  0
   -9.8660  -15.7680   34.0720 N   0  0  0  0  0  0  0  0  0  0  0  0
  -10.1290  -16.3500   35.4290 C   0  0  0  0  0  0  0  0  0  0  0  0
  -11.4720  -16.1770   36.0720 N   0  0  0  0  0  0  0  0  0  0  0  0
  -12.5540  -15.4210   35.3580 C   0  0  0  0  0  0  0  0  0  0  0  0
  -13.8980  -15.2470   36.0020 N   0  0  0  0  0  0  0  0  0  0  0  0
  -10.7670  -14.6120   32.4240 H   0  0  0  0  0  0  0  0  0  0  0  0
   -9.3840  -16.8700   35.9200 H   0  0  0  0  0  0  0  0  0  0  0  0
  -14.6070  -14.7520   35.5330 H   0  0  0  0  0  0  0  0  0  0  0  0
  -14.1600  -15.8300   37.3590 C   0  0  0  0  0  0  0  0  0  0  0  0
  -14.5950  -17.2590   37.4910 C   0  0  0  0  0  0  0  0  0  0  0  0
  -14.8570  -17.8410   38.8480 C   0  0  0  0  0  0  0  0  0  0  0  0
  -14.6850  -16.9940   40.0740 C   0  0  0  0  0  0  0  0  0  0  0  0
  -14.2510  -15.5640   39.9420 C   0  0  0  0  0  0  0  0  0  0  0  0
  -14.0780  -14.7170   41.1680 Cl  0  0  0  0  0  0  0  0  0  0  0  0
  -13.9880  -14.9820   38.5850 C   0  0  0  0  0  0  0  0  0  0  0  0
  -14.7130  -17.8420   36.6470 H   0  0  0  0  0  0  0  0  0  0  0  0
  -15.1560  -18.8250   38.9380 H   0  0  0  0  0  0  0  0  0  0  0  0
  -13.6890  -13.9980   38.4940 H   0  0  0  0  0  0  0  0  0  0  0  0
  -14.9480  -17.5760   41.4310 O   0  0  0  0  0  0  0  0  0  0  0  0
  -16.3410  -17.5860   41.9860 C   0  0  0  0  0  0  0  0  0  0  0  0
  -16.5140  -17.9070   42.9920 H   0  0  0  0  0  0  0  0  0  0  0  0
  -17.3360  -17.5940   42.3820 H   0  0  0  0  0  0  0  0  0  0  0  0
  -17.4930  -17.1470   41.1300 C   0  0  0  0  0  0  0  0  0  0  0  0
  -18.4100  -18.1680   40.5250 C   0  0  0  0  0  0  0  0  0  0  0  0
  -19.5610  -17.7290   39.6700 C   0  0  0  0  0  0  0  0  0  0  0  0
  -19.7950  -16.2680   39.4190 C   0  0  0  0  0  0  0  0  0  0  0  0
  -18.8780  -15.2470   40.0240 C   0  0  0  0  0  0  0  0  0  0  0  0
  -19.1110  -13.7870   39.7740 F   0  0  0  0  0  0  0  0  0  0  0  0
  -17.7260  -15.6870   40.8800 C   0  0  0  0  0  0  0  0  0  0  0  0
  -18.2490  -19.1730   40.6980 H   0  0  0  0  0  0  0  0  0  0  0  0
  -20.1920  -18.4310   39.2540 H   0  0  0  0  0  0  0  0  0  0  0  0
  -20.5870  -15.9660   38.8310 H   0  0  0  0  0  0  0  0  0  0  0  0
  -17.0950  -14.9840   41.2960 H   0  0  0  0  0  0  0  0  0  0  0  0
  -14.4540  -13.3270   32.5730 C   0  0  0  0  0  0  0  0  0  0  0  0
  -13.3720  -14.0830   33.2870 C   0  0  0  0  0  0  0  0  0  0  0  0
  -17.0920  -12.2790   29.8000 C   0  0  0  0  0  0  0  0  0  0  0  0
  -17.6970  -11.0600   30.4320 C   0  0  0  0  0  0  0  0  0  0  0  0
  -17.2220  -10.5980   31.7770 C   0  0  0  0  0  0  0  0  0  0  0  0
  -16.1410  -11.3530   32.4910 C   0  0  0  0  0  0  0  0  0  0  0  0
  -15.5350  -12.5720   31.8590 C   0  0  0  0  0  0  0  0  0  0  0  0
  -16.0100  -13.0340   30.5140 N   0  0  0  0  0  0  0  0  0  0  0  0
  -18.4420  -10.5400   29.9400 H   0  0  0  0  0  0  0  0  0  0  0  0
  -17.6390   -9.7590   32.2110 H   0  0  0  0  0  0  0  0  0  0  0  0
  -15.8140  -11.0350   33.4160 H   0  0  0  0  0  0  0  0  0  0  0  0
  -18.8690  -13.4770   28.3310 C   0  0  0  0  0  0  0  0  0  0  0  0
  -19.6940  -13.7500   29.5530 O   0  0  0  0  0  0  0  0  0  0  0  0
  -17.5670  -12.7410   28.4550 N   0  0  0  0  0  0  0  0  0  0  0  0
  -17.0250  -12.5620   27.6530 H   0  0  0  0  0  0  0  0  0  0  0  0
  -19.3440  -13.9390   26.9860 C   0  0  0  0  0  0  0  0  0  0  0  0
  -20.2730  -14.4640   26.8980 H   0  0  0  0  0  0  0  0  0  0  0  0
  -18.7540  -13.7450   26.1140 H   0  0  0  0  0  0  0  0  0  0  0  0
  -19.6830  -14.2690   26.0260 H   0  0  0  0  0  0  0  0  0  0  0  0
  1  6  1  0
  2  1  2  0
  2  3  1  0
  3  4  2  0
  4  9  1  0
  4  5  1  0
  6  7  1  0
  6  5  2  0
  7 11  1  0
  8  2  1  0
 10  7  1  0
 11 12  2  0
 11 17  1  0
 12 13  1  0
 13 19  1  0
 13 14  2  0
 14 21  1  0
 15 14  1  0
 15 16  1  0
 17 15  2  0
 18 12  1  0
 20 17  1  0
 21 22  1  0
 22 24  1  0
 22 23  1  0
 25 22  1  0
 26 32  1  0
 26 25  2  0
 27 26  1  0
 28 27  2  0
 28 29  1  0
 29 31  2  0
 30 29  1  0
 31 25  1  0
 31 35  1  0
 33 27  1  0
 34 28  1  0
 36 37  3  0
 37  1  1  0
 38 39  2  0
 38 43  1  0
 39 40  1  0
 40 45  1  0
 40 41  2  0
 41 46  1  0
 42 41  1  0
 42 36  1  0
 43 42  2  0
 44 39  1  0
 47 49  1  0
 47 48  2  0
 49 38  1  0
 50 49  1  0
 51 47  1  0
 52 51  1  0
 53 51  1  0
 54 51  1  0
M  END
>  <minimizedAffinity>  (184) 
-8.72828865

$$$$

     RDKit          3D

 35 37  0  0  0  0  0  0  0  0999 V2000
  -14.3570  -15.4710   35.2550 N   0  0  0  0  0  0  0  0  0  0  0  0
  -15.6070  -15.7580   36.0330 C   0  0  0  0  0  0  0  0  0  0  0  0
  -17.0110  -15.4900   35.5770 N   0  0  0  0  0  0  0  0  0  0  0  0
  -17.9440  -15.9290   36.6660 C   0  0  0  0  0  0  0  0  0  0  0  0
  -17.1170  -16.4690   37.7950 C   0  0  0  0  0  0  0  0  0  0  0  0
  -15.6730  -16.3630   37.4040 O   0  0  0  0  0  0  0  0  0  0  0  0
  -14.4160  -15.0700   34.3580 H   0  0  0  0  0  0  0  0  0  0  0  0
  -18.9730  -15.8710   36.6430 H   0  0  0  0  0  0  0  0  0  0  0  0
  -17.6420  -17.0190   39.0890 C   0  0  0  0  0  0  0  0  0  0  0  0
  -16.7060  -17.6710   40.0620 C   0  0  0  0  0  0  0  0  0  0  0  0
  -17.2310  -18.2210   41.3550 C   0  0  0  0  0  0  0  0  0  0  0  0
  -18.6920  -18.1180   41.6740 C   0  0  0  0  0  0  0  0  0  0  0  0
  -19.6290  -17.4650   40.7010 C   0  0  0  0  0  0  0  0  0  0  0  0
  -19.1030  -16.9160   39.4080 C   0  0  0  0  0  0  0  0  0  0  0  0
  -15.7000  -17.7420   39.8410 H   0  0  0  0  0  0  0  0  0  0  0  0
  -16.5860  -18.6690   42.0240 H   0  0  0  0  0  0  0  0  0  0  0  0
  -19.0540  -18.4960   42.5650 H   0  0  0  0  0  0  0  0  0  0  0  0
  -20.6360  -17.3950   40.9210 H   0  0  0  0  0  0  0  0  0  0  0  0
  -19.7480  -16.4670   38.7390 H   0  0  0  0  0  0  0  0  0  0  0  0
  -10.3340  -16.4430   37.0220 C   0  0  0  0  0  0  0  0  0  0  0  0
  -10.4270  -15.5840   35.7960 C   0  0  0  0  0  0  0  0  0  0  0  0
  -11.7680  -15.2600   35.2070 C   0  0  0  0  0  0  0  0  0  0  0  0
  -13.0160  -15.7950   35.8440 C   0  0  0  0  0  0  0  0  0  0  0  0
  -12.9230  -16.6530   37.0710 C   0  0  0  0  0  0  0  0  0  0  0  0
  -11.5820  -16.9770   37.6600 C   0  0  0  0  0  0  0  0  0  0  0  0
   -9.5680  -15.2160   35.3570 H   0  0  0  0  0  0  0  0  0  0  0  0
  -11.8320  -14.6690   34.3630 H   0  0  0  0  0  0  0  0  0  0  0  0
  -13.7820  -17.0210   37.5100 H   0  0  0  0  0  0  0  0  0  0  0  0
  -11.5180  -17.5680   38.5040 H   0  0  0  0  0  0  0  0  0  0  0  0
   -8.9930  -16.7670   37.6110 S   0  0  1  0  0  0  0  0  0  0  0  0
   -9.3900  -16.0880   38.8890 O   0  0  0  0  0  0  0  0  0  0  0  0
   -8.5960  -17.4450   36.3330 O   0  0  0  0  0  0  0  0  0  0  0  0
   -7.6520  -17.0900   38.2000 N   0  0  0  0  0  0  0  0  0  0  0  0
   -7.4300  -16.8010   39.1520 H   0  0  0  0  0  0  0  0  0  0  0  0
   -6.9620  -17.6000   37.6480 H   0  0  0  0  0  0  0  0  0  0  0  0
  1 23  1  0
  1  2  1  0
  2  6  1  0
  3  2  2  0
  3  4  1  0
  4  5  2  0
  5  9  1  0
  6  5  1  0
  7  1  1  0
  8  4  1  0
  9 14  2  0
  9 10  1  0
 10 11  2  0
 11 12  1  0
 11 16  1  0
 12 17  1  0
 13 18  1  0
 13 12  2  0
 14 13  1  0
 15 10  1  0
 19 14  1  0
 20 30  1  0
 20 25  1  0
 21 20  2  0
 22 21  1  0
 22 23  2  0
 23 24  1  0
 24 28  1  0
 24 25  2  0
 25 29  1  0
 26 21  1  0
 27 22  1  0
 30 33  1  0
 30 31  2  0
 32 30  2  0
 33 34  1  0
 35 33  1  0
M  END
>  <minimizedAffinity>  (185) 
-8.2802372

$$$$

     RDKit          3D

 51 52  0  0  0  0  0  0  0  0999 V2000
  -17.1180  -15.9590   36.6660 C   0  0  0  0  0  0  0  0  0  0  0  0
  -15.7300  -16.4970   36.4810 C   0  0  0  0  0  0  0  0  0  0  0  0
  -15.3240  -17.1770   37.7540 C   0  0  0  0  0  3  0  0  0  0  0  0
  -16.4600  -17.0610   38.7260 C   0  0  0  0  0  0  0  0  0  0  0  0
  -17.5700  -16.3070   38.0530 S   0  0  0  0  0  0  0  0  0  0  0  0
  -15.1560  -16.4120   35.6280 H   0  0  0  0  0  0  0  0  0  0  0  0
  -16.8400  -12.6590   32.1200 C   0  0  0  0  0  0  0  0  0  0  0  0
  -18.2480  -12.9490   32.5460 C   0  0  0  0  0  0  0  0  0  0  0  0
  -18.5060  -13.8150   33.7430 C   0  0  0  0  0  0  0  0  0  0  0  0
  -19.7770  -14.2730   34.3960 N   0  0  0  0  0  0  0  0  0  0  0  0
  -19.4110  -15.1320   35.5710 C   0  0  0  0  0  0  0  0  0  0  0  0
  -17.9150  -15.2050   35.6430 N   0  0  0  0  0  0  0  0  0  0  0  0
  -17.3560  -14.3910   34.5140 C   0  0  0  0  0  0  0  0  0  0  0  0
  -15.9470  -14.1000   34.0880 C   0  0  0  0  0  0  0  0  0  0  0  0
  -15.6890  -13.2340   32.8910 C   0  0  0  0  0  0  0  0  0  0  0  0
  -19.0400  -12.5520   32.0150 H   0  0  0  0  0  0  0  0  0  0  0  0
  -20.0730  -15.5910   36.2150 H   0  0  0  0  0  0  0  0  0  0  0  0
  -15.1560  -14.4970   34.6180 H   0  0  0  0  0  0  0  0  0  0  0  0
  -16.5810  -11.7920   30.9230 O   0  0  0  0  0  0  0  0  0  0  0  0
  -16.2300  -10.3450   31.1070 C   0  0  0  0  0  0  0  0  0  0  0  0
  -16.1640   -9.9310   32.0910 H   0  0  0  0  0  0  0  0  0  0  0  0
  -16.0460   -9.7270   30.2520 H   0  0  0  0  0  0  0  0  0  0  0  0
  -15.9800   -9.3120   31.2370 H   0  0  0  0  0  0  0  0  0  0  0  0
  -14.2800  -12.9430   32.4650 O   0  0  0  0  0  0  0  0  0  0  0  0
  -13.1680  -13.8580   32.8810 C   0  0  0  0  0  0  0  0  0  0  0  0
  -12.1620  -13.6510   32.5780 H   0  0  0  0  0  0  0  0  0  0  0  0
  -13.3780  -14.7190   33.4820 H   0  0  0  0  0  0  0  0  0  0  0  0
  -12.3730  -14.5110   33.1790 H   0  0  0  0  0  0  0  0  0  0  0  0
  -16.4830  -17.6020   40.1250 C   0  0  0  0  0  0  0  0  0  0  0  0
  -15.7290  -18.8560   40.4560 N   0  0  0  0  0  0  0  0  0  0  0  0
  -17.2600  -16.8900   41.1920 O   0  0  0  0  0  0  0  0  0  0  0  0
  -15.2190  -19.3240   39.7560 H   0  0  0  0  0  0  0  0  0  0  0  0
  -15.7450  -19.2120   41.3740 H   0  0  0  0  0  0  0  0  0  0  0  0
  -14.0100  -17.8560   38.0100 O   0  0  0  0  0 15  0  0  0  0  0  0
  -12.8170  -17.0470   38.4230 C   0  0  0  0  0  3  0  0  0  0  0  0
  -13.6550  -17.1400   39.0820 H   0  0  0  0  0  0  0  0  0  0  0  0
  -11.6430  -16.9170   37.4990 C   0  0  0  0  0  0  0  0  0  0  0  0
  -10.4260  -17.7690   37.7090 C   0  0  0  0  0  0  0  0  0  0  0  0
   -9.2510  -17.6390   36.7850 C   0  0  0  0  0  0  0  0  0  0  0  0
   -9.2930  -16.6580   35.6530 C   0  0  0  0  0  0  0  0  0  0  0  0
  -10.5090  -15.8050   35.4420 C   0  0  0  0  0  0  0  0  0  0  0  0
  -11.6840  -15.9350   36.3660 C   0  0  0  0  0  0  0  0  0  0  0  0
  -12.9010  -15.0830   36.1560 Cl  0  0  0  0  0  0  0  0  0  0  0  0
  -10.3970  -18.4450   38.4890 H   0  0  0  0  0  0  0  0  0  0  0  0
   -8.4140  -18.2250   36.9300 H   0  0  0  0  0  0  0  0  0  0  0  0
   -8.4840  -16.5680   35.0170 H   0  0  0  0  0  0  0  0  0  0  0  0
  -10.5380  -15.1300   34.6630 H   0  0  0  0  0  0  0  0  0  0  0  0
  -12.7980  -16.3670   39.7600 C   0  0  0  0  0  0  0  0  0  0  0  0
  -13.6350  -16.4600   40.4200 H   0  0  0  0  0  0  0  0  0  0  0  0
  -11.9470  -15.7900   40.0540 H   0  0  0  0  0  0  0  0  0  0  0  0
  -12.7840  -15.8820   40.7140 H   0  0  0  0  0  0  0  0  0  0  0  0
  1  5  1  0
  2  1  2  0
  2  3  1  0
  3  4  2  0
  4 29  1  0
  5  4  1  0
  6  2  1  0
  7  8  2  0
  7 15  1  0
  8  9  1  0
  9 10  1  0
  9 13  2  0
 10 11  2  0
 11 12  1  0
 11 17  1  0
 12  1  1  0
 13 12  1  0
 14 13  1  0
 14 18  1  0
 15 14  2  0
 16  8  1  0
 19 20  1  0
 19  7  1  0
 20 23  1  0
 20 21  1  0
 22 20  1  0
 24 25  1  0
 24 15  1  0
 25 28  1  0
 25 27  1  0
 26 25  1  0
 29 30  1  0
 29 31  2  0
 30 33  1  0
 32 30  1  0
 35 36  1  0
 35 48  1  0
 37 38  1  0
 37 35  1  0
 38 44  1  0
 39 45  1  0
 39 38  2  0
 40 39  1  0
 41 40  2  0
 41 42  1  0
 42 37  2  0
 43 42  1  0
 46 40  1  0
 47 41  1  0
 48 50  1  0
 48 49  1  0
 48 51  1  0
M  END
>  <minimizedAffinity>  (186) 
-9.9285717

$$$$

     RDKit          3D

 50 53  0  0  0  0  0  0  0  0999 V2000
  -15.2320  -15.5480   36.9240 C   0  0  0  0  0  0  0  0  0  0  0  0
  -16.6600  -15.9180   37.1930 C   0  0  0  0  0  0  0  0  0  0  0  0
  -17.7200  -15.6070   36.1780 C   0  0  0  0  0  0  0  0  0  0  0  0
  -17.3510  -14.9260   34.8940 C   0  0  0  0  0  0  0  0  0  0  0  0
  -15.9220  -14.5560   34.6240 C   0  0  0  0  0  0  0  0  0  0  0  0
  -14.8630  -14.8660   35.6400 C   0  0  0  0  0  0  0  0  0  0  0  0
  -16.9140  -16.3870   38.0770 H   0  0  0  0  0  0  0  0  0  0  0  0
  -18.7030  -15.8620   36.3630 H   0  0  0  0  0  0  0  0  0  0  0  0
  -15.6680  -14.0870   33.7410 H   0  0  0  0  0  0  0  0  0  0  0  0
  -13.8800  -14.6120   35.4540 H   0  0  0  0  0  0  0  0  0  0  0  0
  -11.7750  -16.6830   38.5100 C   0  0  0  0  0  0  0  0  0  0  0  0
  -12.0530  -16.4800   39.9700 C   0  0  0  0  0  0  0  0  0  0  0  0
  -13.3910  -15.9670   40.4150 C   0  0  0  0  0  0  0  0  0  0  0  0
  -14.4500  -15.6560   39.4000 C   0  0  0  0  0  0  0  0  0  0  0  0
  -14.1720  -15.8590   37.9400 C   0  0  0  0  0  0  0  0  0  0  0  0
  -12.8350  -16.3720   37.4950 C   0  0  0  0  0  0  0  0  0  0  0  0
  -11.3240  -16.6940   40.6690 H   0  0  0  0  0  0  0  0  0  0  0  0
  -13.5820  -15.8280   41.4200 H   0  0  0  0  0  0  0  0  0  0  0  0
  -12.6430  -16.5110   36.4900 H   0  0  0  0  0  0  0  0  0  0  0  0
   -8.2150  -18.1700   38.0890 C   0  0  0  0  0  0  0  0  0  0  0  0
   -8.5450  -17.8020   36.6730 N   0  0  0  0  0  0  0  0  0  0  0  0
   -9.9180  -17.2000   36.6580 N   0  0  0  0  0  0  0  0  0  0  0  0
  -10.4380  -17.1960   38.0650 C   0  0  0  0  0  0  0  0  0  0  0  0
   -9.3850  -17.7950   38.9500 O   0  0  0  0  0  0  0  0  0  0  0  0
   -6.9390  -18.8010   38.5620 C   0  0  0  0  0  0  0  0  0  0  0  0
   -6.8050  -19.0230   39.6000 H   0  0  0  0  0  0  0  0  0  0  0  0
   -6.1630  -19.0290   37.8620 H   0  0  0  0  0  0  0  0  0  0  0  0
   -6.0290  -19.2510   38.8990 H   0  0  0  0  0  0  0  0  0  0  0  0
  -15.7880  -15.1430   39.8440 C   0  0  0  0  0  0  0  0  0  0  0  0
  -15.9860  -14.9980   40.8860 H   0  0  0  0  0  0  0  0  0  0  0  0
  -16.5430  -14.9210   39.1200 H   0  0  0  0  0  0  0  0  0  0  0  0
  -16.7420  -14.7770   40.1620 H   0  0  0  0  0  0  0  0  0  0  0  0
  -18.4100  -14.6150   33.8780 C   0  0  0  0  0  0  0  0  0  0  0  0
  -19.1610  -15.7300   33.2120 O   0  0  0  0  0  0  0  0  0  0  0  0
  -18.7190  -13.1890   33.5290 N   0  0  0  0  0  0  0  0  0  0  0  0
  -18.2260  -12.4570   33.9660 H   0  0  0  0  0  0  0  0  0  0  0  0
  -19.7780  -12.8780   32.5130 C   0  0  0  0  0  0  0  0  0  0  0  0
  -20.8120  -12.9670   32.7750 H   0  0  0  0  0  0  0  0  0  0  0  0
  -20.5340  -12.6570   31.7890 H   0  0  0  0  0  0  0  0  0  0  0  0
  -19.3880  -12.4440   31.1320 C   0  0  0  0  0  0  0  0  0  0  0  0
  -19.1500  -10.9920   30.8420 C   0  0  0  0  0  0  0  0  0  0  0  0
  -18.7600  -10.5570   29.4600 C   0  0  0  0  0  0  0  0  0  0  0  0
  -18.6090  -11.5750   28.3680 C   0  0  0  0  0  0  0  0  0  0  0  0
  -18.2190  -11.1400   26.9870 Cl  0  0  0  0  0  0  0  0  0  0  0  0
  -18.8470  -13.0270   28.6590 C   0  0  0  0  0  0  0  0  0  0  0  0
  -19.2370  -13.4610   30.0400 C   0  0  0  0  0  0  0  0  0  0  0  0
  -19.2540  -10.2910   31.5930 H   0  0  0  0  0  0  0  0  0  0  0  0
  -18.5960   -9.5580   29.2600 H   0  0  0  0  0  0  0  0  0  0  0  0
  -18.7430  -13.7270   27.9080 H   0  0  0  0  0  0  0  0  0  0  0  0
  -19.4010  -14.4610   30.2400 H   0  0  0  0  0  0  0  0  0  0  0  0
  1  2  1  0
  1 15  1  0
  2  7  1  0
  3  8  1  0
  3  2  2  0
  4  3  1  0
  5  4  2  0
  5  6  1  0
  6  1  2  0
  9  5  1  0
 10  6  1  0
 11 12  1  0
 12 13  2  0
 12 17  1  0
 13 18  1  0
 14 29  1  0
 14 13  1  0
 15 14  2  0
 16 15  1  0
 16 11  2  0
 19 16  1  0
 20 25  1  0
 20 24  1  0
 21 20  2  0
 22 21  1  0
 22 23  2  0
 23 11  1  0
 23 24  1  0
 25 28  1  0
 25 26  1  0
 27 25  1  0
 29 32  1  0
 29 30  1  0
 31 29  1  0
 33  4  1  0
 34 33  2  0
 35 33  1  0
 35 36  1  0
 37 38  1  0
 37 35  1  0
 39 37  1  0
 40 37  1  0
 41 40  1  0
 41 47  1  0
 42 41  2  0
 43 45  2  0
 43 42  1  0
 44 43  1  0
 45 46  1  0
 46 50  1  0
 46 40  2  0
 48 42  1  0
 49 45  1  0
M  END
>  <minimizedAffinity>  (187) 
-8.91086864

$$$$

     RDKit          3D

 43 43  0  0  0  0  0  0  0  0999 V2000
  -13.9820  -13.9590   32.9530 C   0  0  0  0  0  0  0  0  0  0  0  0
  -14.9350  -14.1560   34.0940 C   0  0  0  0  0  0  0  0  0  0  0  0
  -14.4560  -14.7780   35.3720 C   0  0  0  0  0  0  0  0  0  0  0  0
  -13.0240  -15.2020   35.5100 C   0  0  0  0  0  0  0  0  0  0  0  0
  -12.2690  -15.8360   36.6400 C   0  0  0  0  0  0  0  0  0  0  0  0
  -10.8490  -16.0320   36.1970 C   0  0  0  0  0  0  0  0  0  0  0  0
  -10.7260  -15.5170   34.7940 N   0  0  0  0  0  0  0  0  0  0  0  0
  -12.0710  -15.0040   34.3690 N   0  0  0  0  0  0  0  0  0  0  0  0
  -12.5500  -14.3830   33.0900 C   0  0  0  0  0  0  0  0  0  0  0  0
  -15.9210  -13.8640   33.9990 H   0  0  0  0  0  0  0  0  0  0  0  0
  -15.1130  -14.9130   36.1580 H   0  0  0  0  0  0  0  0  0  0  0  0
  -11.8930  -14.2470   32.3050 H   0  0  0  0  0  0  0  0  0  0  0  0
   -9.7460  -16.6350   37.0150 C   0  0  0  0  0  0  0  0  0  0  0  0
   -8.7840  -15.7480   37.7480 C   0  0  0  0  0  0  0  0  0  0  0  0
   -7.6810  -16.3510   38.5650 C   0  0  0  0  0  0  0  0  0  0  0  0
   -7.5390  -17.8420   38.6500 C   0  0  0  0  0  0  0  0  0  0  0  0
   -6.4360  -18.4460   39.4670 F   0  0  0  0  0  0  0  0  0  0  0  0
   -8.5010  -18.7300   37.9160 C   0  0  0  0  0  0  0  0  0  0  0  0
   -9.6040  -18.1260   37.0990 C   0  0  0  0  0  0  0  0  0  0  0  0
   -8.8820  -14.7220   37.6900 H   0  0  0  0  0  0  0  0  0  0  0  0
   -7.0190  -15.7410   39.0700 H   0  0  0  0  0  0  0  0  0  0  0  0
   -8.4030  -19.7560   37.9740 H   0  0  0  0  0  0  0  0  0  0  0  0
  -10.2660  -18.7370   36.5940 H   0  0  0  0  0  0  0  0  0  0  0  0
  -12.8350  -16.2110   37.9780 C   0  0  0  0  0  0  0  0  0  0  0  0
  -12.0690  -15.9000   39.2290 C   0  0  0  0  0  0  0  0  0  0  0  0
  -12.6350  -16.2740   40.5670 C   0  0  0  0  0  3  0  0  0  0  0  0
  -13.9670  -16.9590   40.6530 N   0  0  0  0  0  0  0  0  0  0  0  0
  -14.7330  -17.2700   39.4020 C   0  0  0  0  0  0  0  0  0  0  0  0
  -16.0640  -17.9550   39.4880 N   0  0  0  0  0  2  0  0  0  0  0  0
  -14.1670  -16.8960   38.0640 N   0  0  0  0  0  0  0  0  0  0  0  0
  -11.1530  -15.4290   39.1700 H   0  0  0  0  0  0  0  0  0  0  0  0
  -12.1080  -16.0600   41.4290 H   0  0  0  0  0  0  0  0  0  0  0  0
  -16.5670  -18.1590   38.6660 H   0  0  0  0  0  0  0  0  0  0  0  0
  -16.6300  -18.3300   40.8260 C   0  0  0  0  0 15  0  0  0  0  0  0
  -16.7030  -19.2770   41.9860 C   0  0  0  0  0  3  0  0  0  0  0  0
  -17.5370  -18.0310   41.9830 C   0  0  0  0  0  2  0  0  0  0  0  0
  -17.0340  -18.5970   41.7800 H   0  0  0  0  0  0  0  0  0  0  0  0
  -16.3900  -20.1810   42.4660 H   0  0  0  0  0  0  0  0  0  0  0  0
  -17.2470  -19.3050   42.9070 H   0  0  0  0  0  0  0  0  0  0  0  0
  -18.2540  -17.3930   42.4570 H   0  0  0  0  0  0  0  0  0  0  0  0
  -17.6720  -17.2120   41.3060 H   0  0  0  0  0  0  0  0  0  0  0  0
  -14.9390  -12.7160   30.3960 N   0  0  0  0  0  1  0  0  0  0  0  0
  -14.4610  -13.3370   31.6740 C   0  0  0  0  0  2  0  0  0  0  0  0
  1  9  2  0
  1  2  1  0
  2  3  2  0
  3  4  1  0
  3 11  1  0
  4  5  2  0
  5 24  1  0
  6  5  1  0
  6 13  1  0
  7  6  2  0
  8  7  1  0
  8  4  1  0
  9  8  1  0
 10  2  1  0
 12  9  1  0
 13 19  2  0
 13 14  1  0
 14 15  2  0
 15 16  1  0
 15 21  1  0
 16 17  1  0
 18 22  1  0
 18 16  2  0
 19 18  1  0
 20 14  1  0
 23 19  1  0
 24 30  1  0
 24 25  2  0
 25 26  1  0
 26 27  1  0
 26 32  1  0
 28 29  1  0
 28 27  2  0
 30 28  2  0
 31 25  1  0
 33 29  1  0
 35 38  1  0
 35 39  1  0
 36 40  1  0
 37 35  1  0
 41 36  1  0
 42 43  1  0
 43  1  1  0
M  END
>  <minimizedAffinity>  (188) 
-10.1523771

$$$$

     RDKit          3D

 53 49  0  0  0  0  0  0  0  0999 V2000
  -16.6990  -16.1030   37.1850 C   0  0  0  0  0  0  0  0  0  0  0  0
  -18.1780  -15.9060   37.0370 C   0  0  0  0  0  0  0  0  0  0  0  0
  -18.7170  -15.1150   35.8820 C   0  0  0  0  0  0  0  0  0  0  0  0
  -17.7770  -14.5210   34.8750 C   0  0  0  0  0  0  0  0  0  0  0  0
  -16.2980  -14.7180   35.0230 C   0  0  0  0  0  0  0  0  0  0  0  0
  -15.7580  -15.5090   36.1780 C   0  0  0  0  0  0  0  0  0  0  0  0
  -18.8250  -16.3140   37.7290 H   0  0  0  0  0  0  0  0  0  0  0  0
  -19.7360  -14.9790   35.7800 H   0  0  0  0  0  0  0  0  0  0  0  0
  -15.6500  -14.3100   34.3310 H   0  0  0  0  0  0  0  0  0  0  0  0
  -14.2790  -15.7070   36.3270 C   0  0  0  0  0  0  0  0  0  0  0  0
  -13.7500  -16.7070   37.3110 C   0  0  0  0  0  0  0  0  0  0  0  0
  -12.2710  -16.9040   37.4600 C   0  0  0  0  0  0  0  0  0  0  0  0
  -11.3200  -16.1010   36.6230 C   0  0  0  0  0  0  0  0  0  0  0  0
  -11.8480  -15.1000   35.6380 C   0  0  0  0  0  0  0  0  0  0  0  0
  -13.3280  -14.9030   35.4900 C   0  0  0  0  0  0  0  0  0  0  0  0
  -14.4050  -17.2600   37.8870 H   0  0  0  0  0  0  0  0  0  0  0  0
  -11.9070  -17.5930   38.1370 H   0  0  0  0  0  0  0  0  0  0  0  0
  -11.1930  -14.5480   35.0630 H   0  0  0  0  0  0  0  0  0  0  0  0
  -13.6910  -14.2150   34.8120 H   0  0  0  0  0  0  0  0  0  0  0  0
   -9.8400  -16.2980   36.7710 C   0  0  0  0  0  0  0  0  0  0  0  0
   -9.0260  -16.7740   35.6050 O   0  0  0  0  0  0  0  0  0  0  0  0
   -9.1740  -16.0190   38.0860 N   0  0  0  0  0  4  0  0  0  0  0  0
   -9.7080  -15.7070   38.8510 H   0  0  0  0  0  0  0  0  0  0  0  0
   -7.6950  -16.2160   38.2340 C   0  0  0  0  0  0  0  0  0  0  0  0
   -7.0220  -15.4170   38.0030 H   0  0  0  0  0  0  0  0  0  0  0  0
   -6.6390  -16.3570   38.3400 H   0  0  0  0  0  0  0  0  0  0  0  0
   -7.1580  -17.5350   38.7070 C   0  0  0  0  0 15  0  0  0  0  0  0
   -7.0850  -19.0280   38.5830 C   0  0  0  0  0  2  0  0  0  0  0  0
   -6.2990  -18.3250   39.6500 C   0  0  0  0  0  3  0  0  0  0  0  0
   -6.7740  -18.4750   39.0450 H   0  0  0  0  0  0  0  0  0  0  0  0
   -7.3790  -19.9320   38.0930 H   0  0  0  0  0  0  0  0  0  0  0  0
   -6.5700  -19.8070   39.1070 H   0  0  0  0  0  0  0  0  0  0  0  0
   -5.6230  -18.3610   40.4780 H   0  0  0  0  0  0  0  0  0  0  0  0
   -6.1750  -17.3050   39.9490 H   0  0  0  0  0  0  0  0  0  0  0  0
  -16.1590  -16.8940   38.3400 C   0  0  0  0  0  0  0  0  0  0  0  0
  -16.8310  -17.3180   39.0580 H   0  0  0  0  0  0  0  0  0  0  0  0
  -15.1040  -17.0350   38.4450 H   0  0  0  0  0  0  0  0  0  0  0  0
  -15.7750  -17.4580   39.1630 H   0  0  0  0  0  0  0  0  0  0  0  0
  -18.3160  -13.7300   33.7200 N   0  0  0  0  0  0  0  0  0  0  0  0
  -19.1260  -14.4120   32.6570 C   0  0  0  0  0  0  0  0  0  0  0  0
  -19.3960  -15.8840   32.7490 O   0  0  0  0  0  0  0  0  0  0  0  0
  -18.1390  -12.7640   33.6600 H   0  0  0  0  0  0  0  0  0  0  0  0
  -19.6650  -13.6210   31.5020 C   0  0  0  0  0  0  0  0  0  0  0  0
  -20.6690  -13.2500   31.5300 H   0  0  0  0  0  0  0  0  0  0  0  0
  -20.0500  -13.0570   30.6790 H   0  0  0  0  0  0  0  0  0  0  0  0
  -18.7980  -13.3500   30.3090 C   0  0  0  0  0  1  0  0  0  0  0  0
  -18.6070  -13.3210   28.8210 C   0  0  0  0  0  3  0  0  0  0  0  0
  -17.4860  -12.9090   29.7290 C   0  0  0  0  0  2  0  0  0  0  0  0
  -18.1790  -13.1570   29.4570 H   0  0  0  0  0  0  0  0  0  0  0  0
  -18.9900  -13.4790   27.8350 H   0  0  0  0  0  0  0  0  0  0  0  0
  -17.8020  -13.0580   28.1660 H   0  0  0  0  0  0  0  0  0  0  0  0
  -16.4840  -12.5580   29.8640 H   0  0  0  0  0  0  0  0  0  0  0  0
  -17.3580  -12.8380   30.7900 H   0  0  0  0  0  0  0  0  0  0  0  0
  1 35  1  0
  2  1  1  0
  2  7  1  0
  3  2  2  0
  4  5  2  0
  4  3  1  0
  5  6  1  0
  6 10  1  0
  6  1  2  0
  8  3  1  0
  9  5  1  0
 10 11  1  0
 11 12  2  0
 11 16  1  0
 12 17  1  0
 13 20  1  0
 13 12  1  0
 14 13  2  0
 15 14  1  0
 15 10  2  0
 18 14  1  0
 19 15  1  0
 20 22  1  0
 21 20  2  0
 22 24  2  0
 22 23  1  0
 24 26  1  0
 25 24  1  0
 28 32  1  0
 29 34  1  0
 29 33  1  0
 30 29  1  0
 31 28  1  0
 35 37  1  0
 35 36  1  0
 35 38  1  0
 39  4  1  0
 40 41  2  0
 40 39  1  0
 42 39  1  0
 43 44  1  0
 43 40  1  0
 45 43  1  0
 46 43  1  0
 47 49  1  0
 48 52  1  0
 48 53  1  0
 50 47  1  0
 51 47  1  0
M  END
>  <minimizedAffinity>  (189) 
-10.3662004

$$$$

     RDKit          3D

 37 40  0  0  1  0  0  0  0  0999 V2000
  -13.7010  -15.6560   36.0920 C   0  0  0  0  0  0  0  0  0  0  0  0
  -14.8320  -15.0110   35.3490 C   0  0  0  0  0  3  0  0  0  0  0  0
  -14.7080  -14.1630   34.1180 C   0  0  0  0  0  0  0  0  0  0  0  0
  -13.4310  -13.8100   33.4150 O   0  0  0  0  0  0  0  0  0  0  0  0
  -16.0860  -13.7280   33.7130 N   0  0  0  0  0  0  0  0  0  0  0  0
  -17.0620  -14.3080   34.6940 C   0  0  0  0  0  0  0  0  0  0  0  0
  -18.5540  -14.2170   34.7980 C   0  0  0  0  0  0  0  0  0  0  0  0
  -19.2740  -14.9180   35.9120 C   0  0  0  0  0  0  0  0  0  0  0  0
  -18.4990  -15.7100   36.9220 C   0  0  0  0  0  0  0  0  0  0  0  0
  -18.9300  -16.5030   38.1210 N   0  0  0  0  0  0  0  0  0  0  0  0
  -17.7020  -17.0840   38.7590 C   0  0  0  0  0  0  0  0  0  0  0  0
  -16.5140  -16.6510   37.9540 S   0  0  0  0  0  0  0  0  0  0  0  0
  -17.0060  -15.8020   36.8190 C   0  0  0  0  0  0  0  0  0  0  0  0
  -16.2870  -15.1000   35.7050 C   0  0  0  0  0  0  0  0  0  0  0  0
  -13.8920  -16.2230   36.9330 H   0  0  0  0  0  0  0  0  0  0  0  0
  -16.3100  -13.1620   32.9400 H   0  0  0  0  0  0  0  0  0  0  0  0
  -19.0880  -13.6710   34.1030 H   0  0  0  0  0  0  0  0  0  0  0  0
  -20.3020  -14.8550   35.9830 H   0  0  0  0  0  0  0  0  0  0  0  0
  -17.6800  -17.6770   39.6030 H   0  0  0  0  0  0  0  0  0  0  0  0
  -12.2900  -15.4760   35.6150 N   0  0  0  0  0  4  0  0  0  0  0  0
  -12.1090  -14.9550   34.8000 H   0  0  0  0  0  0  0  0  0  0  0  0
   -8.8860  -17.3220   37.9070 C   0  0  0  0  0  0  0  0  0  0  0  0
   -8.7300  -17.0210   36.4460 C   0  0  0  0  0  0  0  0  0  0  0  0
   -9.8650  -16.4060   35.6820 C   0  0  0  0  0  0  0  0  0  0  0  0
  -11.1550  -16.0910   36.3790 C   0  0  0  0  0  0  0  0  0  0  0  0
  -11.3110  -16.3920   37.8400 C   0  0  0  0  0  0  0  0  0  0  0  0
  -10.1770  -17.0080   38.6040 C   0  0  0  0  0  0  0  0  0  0  0  0
   -7.8430  -17.2380   35.9670 H   0  0  0  0  0  0  0  0  0  0  0  0
   -9.7580  -16.1990   34.6760 H   0  0  0  0  0  0  0  0  0  0  0  0
  -12.1990  -16.1760   38.3200 H   0  0  0  0  0  0  0  0  0  0  0  0
  -10.2840  -17.2150   39.6100 H   0  0  0  0  0  0  0  0  0  0  0  0
   -7.7520  -17.9370   38.6710 S   0  0  1  0  0  0  0  0  0  0  0  0
   -8.5290  -19.2140   38.7970 O   0  0  0  0  0  0  0  0  0  0  0  0
   -6.9750  -16.6610   38.5460 O   0  0  0  0  0  0  0  0  0  0  0  0
   -6.6170  -18.5530   39.4360 N   0  0  0  0  0  0  0  0  0  0  0  0
   -6.6890  -19.5140   39.7690 H   0  0  0  0  0  0  0  0  0  0  0  0
   -5.7730  -18.0100   39.6220 H   0  0  0  0  0  0  0  0  0  0  0  0
  1 15  1  0
  2 14  1  0
  2  1  1  0
  3  2  1  0
  4  3  2  0
  5  3  1  0
  5  6  1  0
  6  7  2  0
  6 14  1  0
  7  8  1  0
  8 18  1  0
  8  9  2  0
  9 10  1  0
 10 11  2  0
 11 19  1  0
 12 11  1  0
 13  9  1  0
 13 12  1  0
 14 13  2  0
 16  5  1  0
 17  7  1  0
 20  1  2  0
 20 25  1  0
 21 20  1  0
 22 27  1  0
 22 32  1  0
 23 22  2  0
 24 25  2  0
 24 23  1  0
 25 26  1  0
 26 30  1  0
 26 27  2  0
 27 31  1  0
 28 23  1  0
 29 24  1  0
 32 33  2  0
 32 35  1  0
 34 32  2  0
 35 37  1  0
 35 36  1  0
M  END
>  <minimizedAffinity>  (190) 
-9.02979279

$$$$

     RDKit          3D

 39 42  0  0  0  0  0  0  0  0999 V2000
  -13.7100  -15.7140   36.1890 N   0  0  0  0  0  0  0  0  0  0  0  0
  -14.8520  -15.0710   35.4580 C   0  0  0  0  0  0  0  0  0  0  0  0
  -14.7450  -14.2360   34.2170 C   0  0  0  0  0  0  0  0  0  0  0  0
  -13.4790  -13.8960   33.4880 O   0  0  0  0  0  0  0  0  0  0  0  0
  -16.1270  -13.7990   33.8320 N   0  0  0  0  0  0  0  0  0  0  0  0
  -17.0890  -14.3650   34.8360 C   0  0  0  0  0  0  0  0  0  0  0  0
  -18.5800  -14.2660   34.9640 C   0  0  0  0  0  0  0  0  0  0  0  0
  -19.2820  -14.9530   36.0970 C   0  0  0  0  0  0  0  0  0  0  0  0
  -18.4940  -15.7390   37.1020 C   0  0  0  0  0  0  0  0  0  0  0  0
  -19.1960  -16.4260   38.2360 N   0  0  0  0  0  0  0  0  0  0  0  0
  -18.4080  -17.2120   39.2410 C   0  0  0  0  0  0  0  0  0  0  0  0
  -16.9160  -17.3110   39.1120 C   0  0  0  0  0  0  0  0  0  0  0  0
  -16.2140  -16.6240   37.9790 C   0  0  0  0  0  0  0  0  0  0  0  0
  -17.0020  -15.8380   36.9740 C   0  0  0  0  0  0  0  0  0  0  0  0
  -16.3000  -15.1510   35.8410 C   0  0  0  0  0  0  0  0  0  0  0  0
  -16.3630  -13.2400   33.0570 H   0  0  0  0  0  0  0  0  0  0  0  0
  -19.1220  -13.7250   34.2720 H   0  0  0  0  0  0  0  0  0  0  0  0
  -20.3080  -14.8850   36.1860 H   0  0  0  0  0  0  0  0  0  0  0  0
  -18.8910  -17.6850   40.0210 H   0  0  0  0  0  0  0  0  0  0  0  0
  -16.3740  -17.8520   39.8040 H   0  0  0  0  0  0  0  0  0  0  0  0
  -15.1880  -16.6920   37.8910 H   0  0  0  0  0  0  0  0  0  0  0  0
  -12.3080  -15.5450   35.6850 N   0  0  0  0  0  0  0  0  0  0  0  0
  -12.1390  -15.0380   34.8590 H   0  0  0  0  0  0  0  0  0  0  0  0
   -8.8700  -17.3590   37.9550 C   0  0  0  0  0  0  0  0  0  0  0  0
   -8.7190  -17.0330   36.4980 C   0  0  0  0  0  0  0  0  0  0  0  0
   -9.8650  -16.4290   35.7410 C   0  0  0  0  0  0  0  0  0  0  0  0
  -11.1620  -16.1500   36.4420 C   0  0  0  0  0  0  0  0  0  0  0  0
  -11.3130  -16.4760   37.8990 C   0  0  0  0  0  0  0  0  0  0  0  0
  -10.1670  -17.0800   38.6550 C   0  0  0  0  0  0  0  0  0  0  0  0
   -7.8270  -17.2250   36.0170 H   0  0  0  0  0  0  0  0  0  0  0  0
   -9.7610  -16.2050   34.7400 H   0  0  0  0  0  0  0  0  0  0  0  0
  -12.2050  -16.2840   38.3800 H   0  0  0  0  0  0  0  0  0  0  0  0
  -10.2710  -17.3040   39.6570 H   0  0  0  0  0  0  0  0  0  0  0  0
   -7.7240  -17.9630   38.7100 S   0  0  2  0  0  0  0  0  0  0  0  0
   -6.9700  -16.6710   38.6010 O   0  0  0  0  0  0  0  0  0  0  0  0
   -8.4780  -19.2550   38.8190 O   0  0  0  0  0  0  0  0  0  0  0  0
   -6.5780  -18.5680   39.4660 N   0  0  0  0  0  0  0  0  0  0  0  0
   -5.7450  -18.0130   39.6580 H   0  0  0  0  0  0  0  0  0  0  0  0
   -6.6320  -19.5340   39.7870 H   0  0  0  0  0  0  0  0  0  0  0  0
  2 15  1  0
  2  1  2  0
  3  2  1  0
  4  3  2  0
  5  3  1  0
  5  6  1  0
  6  7  2  0
  6 15  1  0
  7  8  1  0
  8 18  1  0
  8  9  2  0
  9 10  1  0
 10 11  2  0
 11 19  1  0
 12 11  1  0
 12 20  1  0
 13 12  2  0
 14  9  1  0
 14 13  1  0
 15 14  2  0
 16  5  1  0
 17  7  1  0
 21 13  1  0
 22  1  1  0
 22 27  1  0
 23 22  1  0
 24 29  1  0
 24 34  1  0
 25 24  2  0
 26 27  2  0
 26 25  1  0
 27 28  1  0
 28 32  1  0
 28 29  2  0
 29 33  1  0
 30 25  1  0
 31 26  1  0
 34 36  2  0
 34 37  1  0
 35 34  2  0
 37 38  1  0
 37 39  1  0
M  END
>  <minimizedAffinity>  (191) 
-9.29964924

$$$$

     RDKit          3D

 44 47  0  0  1  0  0  0  0  0999 V2000
  -11.6370  -15.7770   36.0150 C   0  0  0  0  0  0  0  0  0  0  0  0
  -10.7460  -15.0260   35.0710 C   0  0  0  0  0  0  0  0  0  0  0  0
  -11.2860  -14.5300   33.7640 C   0  0  0  0  0  0  0  0  0  0  0  0
  -12.7190  -14.7830   33.4000 C   0  0  0  0  0  0  0  0  0  0  0  0
  -13.6110  -15.5340   34.3430 C   0  0  0  0  0  0  0  0  0  0  0  0
  -13.0690  -16.0310   35.6510 C   0  0  0  0  0  0  0  0  0  0  0  0
   -9.7590  -14.8520   35.3210 H   0  0  0  0  0  0  0  0  0  0  0  0
  -10.6720  -14.0130   33.1140 H   0  0  0  0  0  0  0  0  0  0  0  0
  -14.5960  -15.7090   34.0940 H   0  0  0  0  0  0  0  0  0  0  0  0
  -13.6830  -16.5480   36.3010 H   0  0  0  0  0  0  0  0  0  0  0  0
   -9.0130  -17.3630   35.0640 N   0  0  0  0  0  0  0  0  0  0  0  0
   -8.8510  -17.6330   36.5300 C   0  0  0  0  0  0  0  0  0  0  0  0
   -7.6860  -18.4410   37.0200 N   0  0  0  0  0  0  0  0  0  0  0  0
   -7.5230  -18.7120   38.4860 C   0  0  0  0  0  3  0  0  0  0  0  0
   -8.5270  -18.1750   39.4630 N   0  0  0  0  0  0  0  0  0  0  0  0
   -9.6920  -17.3670   38.9740 C   0  0  0  0  0  0  0  0  0  0  0  0
  -10.8330  -16.7120   39.6960 O   0  0  0  0  0  0  0  0  0  0  0  0
  -11.7000  -16.0370   38.6750 C   0  0  0  0  0  0  0  0  0  0  0  0
  -11.0960  -16.2740   37.3220 C   0  0  0  0  0  0  0  0  0  0  0  0
   -9.8540  -17.0960   37.5080 C   0  0  0  0  0  3  0  0  0  0  0  0
   -8.3540  -17.7150   34.4230 H   0  0  0  0  0  0  0  0  0  0  0  0
   -9.7790  -16.8320   34.7430 H   0  0  0  0  0  0  0  0  0  0  0  0
   -6.7210  -19.2670   38.8230 H   0  0  0  0  0  0  0  0  0  0  0  0
  -12.5620  -15.5030   38.8680 H   0  0  0  0  0  0  0  0  0  0  0  0
  -13.2610  -14.2860   32.0920 N   0  0  0  0  0  0  0  0  0  0  0  0
  -14.4020  -13.3120   32.0740 C   0  0  0  0  0  0  0  0  0  0  0  0
  -15.0010  -12.8360   33.3640 O   0  0  0  0  0  0  0  0  0  0  0  0
  -14.9430  -12.8150   30.7670 N   0  0  0  0  0  0  0  0  0  0  0  0
  -12.8680  -14.5990   31.2450 H   0  0  0  0  0  0  0  0  0  0  0  0
  -14.5500  -13.1280   29.9200 H   0  0  0  0  0  0  0  0  0  0  0  0
  -16.0840  -11.8410   30.7500 C   0  0  0  0  0  0  0  0  0  0  0  0
  -16.5850  -11.2960   29.4450 C   0  0  0  0  0  0  0  0  0  0  0  0
  -17.7260  -10.3220   29.4280 C   0  0  0  0  0  0  0  0  0  0  0  0
  -18.3660   -9.8940   30.7140 C   0  0  0  0  0  0  0  0  0  0  0  0
  -17.8650  -10.4390   32.0190 C   0  0  0  0  0  0  0  0  0  0  0  0
  -16.7240  -11.4130   32.0360 C   0  0  0  0  0  0  0  0  0  0  0  0
  -16.1450  -11.5910   28.5600 H   0  0  0  0  0  0  0  0  0  0  0  0
  -18.0700   -9.9470   28.5290 H   0  0  0  0  0  0  0  0  0  0  0  0
  -19.1500   -9.2240   30.7020 H   0  0  0  0  0  0  0  0  0  0  0  0
  -16.3800  -11.7880   32.9340 H   0  0  0  0  0  0  0  0  0  0  0  0
  -18.5050  -10.0100   33.3060 C   0  0  0  0  0  0  0  0  0  0  0  0
  -19.1440   -9.5820   34.5930 F   0  0  0  0  0  0  0  0  0  0  0  0
  -19.7950   -9.7640   32.5830 F   0  0  0  0  0  0  0  0  0  0  0  0
  -17.2140  -10.2570   34.0300 F   0  0  0  0  0  0  0  0  0  0  0  0
  1 19  1  0
  2  7  1  0
  2  1  2  0
  3  2  1  0
  4  3  2  0
  4  5  1  0
  5  6  2  0
  6  1  1  0
  6 10  1  0
  8  3  1  0
  9  5  1  0
 11 12  1  0
 12 13  2  0
 13 14  1  0
 14 23  1  0
 14 15  1  0
 16 15  2  0
 16 17  1  0
 18 24  1  0
 18 17  1  0
 19 20  1  0
 19 18  2  0
 20 12  1  0
 20 16  1  0
 21 11  1  0
 22 11  1  0
 25  4  1  0
 26 25  1  0
 26 27  2  0
 28 26  1  0
 29 25  1  0
 30 28  1  0
 31 28  1  0
 31 36  1  0
 32 31  2  0
 33 32  1  0
 33 34  2  0
 34 35  1  0
 35 36  2  0
 35 41  1  0
 36 40  1  0
 37 32  1  0
 38 33  1  0
 39 34  1  0
 41 44  1  0
 41 42  1  0
 43 41  1  0
M  END
>  <minimizedAffinity>  (192) 
-8.34193134

$$$$

     RDKit          3D

 37 38  0  0  0  0  0  0  0  0999 V2000
  -15.4680  -17.1790   39.4500 N   0  0  0  0  0  1  0  0  0  0  0  0
  -14.0150  -16.8080   39.4960 C   0  0  0  0  0  3  0  0  0  0  0  0
  -13.3870  -16.3980   40.7950 N   0  0  0  0  0  0  0  0  0  0  0  0
  -11.9340  -16.0280   40.8420 C   0  0  0  0  0  0  0  0  0  0  0  0
  -11.1100  -16.0670   39.5890 C   0  0  0  0  0  0  0  0  0  0  0  0
  -11.7380  -16.4770   38.2900 C   0  0  0  0  0  0  0  0  0  0  0  0
  -13.1910  -16.8480   38.2440 N   0  0  0  0  0  0  0  0  0  0  0  0
  -16.0080  -17.1520   40.2720 H   0  0  0  0  0  0  0  0  0  0  0  0
  -11.5020  -15.7460   41.7350 H   0  0  0  0  0  0  0  0  0  0  0  0
  -10.1100  -15.8120   39.6210 H   0  0  0  0  0  0  0  0  0  0  0  0
  -10.9140  -16.5170   37.0380 C   0  0  0  0  0  0  0  0  0  0  0  0
   -9.6000  -17.2200   36.8690 C   0  0  0  0  0  0  0  0  0  0  0  0
   -9.1320  -16.9980   35.4610 N   0  0  0  0  0  0  0  0  0  0  0  0
  -10.1570  -16.1570   34.7600 N   0  0  0  0  0  0  0  0  0  0  0  0
  -10.2310  -15.6230   33.3600 N   0  0  0  0  0  0  0  0  0  0  0  0
  -11.4050  -14.7930   32.9340 C   0  0  0  0  0  0  0  0  0  0  0  0
  -12.5060  -14.4950   33.9090 C   0  0  0  0  0  0  0  0  0  0  0  0
  -12.4330  -15.0290   35.3090 C   0  0  0  0  0  0  0  0  0  0  0  0
  -11.2580  -15.8600   35.7340 C   0  0  0  0  0  0  0  0  0  0  0  0
   -9.1040  -17.7620   37.5940 H   0  0  0  0  0  0  0  0  0  0  0  0
  -11.4560  -14.4260   31.9710 H   0  0  0  0  0  0  0  0  0  0  0  0
  -13.3140  -13.9240   33.6160 H   0  0  0  0  0  0  0  0  0  0  0  0
  -13.1900  -14.8240   35.9790 H   0  0  0  0  0  0  0  0  0  0  0  0
  -16.0960  -17.5890   38.1510 C   0  0  0  0  0  3  0  0  0  0  0  0
  -16.1280  -18.6210   37.8740 H   0  0  0  0  0  0  0  0  0  0  0  0
  -15.6790  -18.3290   38.8010 H   0  0  0  0  0  0  0  0  0  0  0  0
  -18.4350  -13.4350   34.5070 Cl  0  0  0  0  0  0  0  0  0  0  0  0
  -17.8500  -14.4740   35.4180 C   0  0  0  0  0  0  0  0  0  0  0  0
  -16.4940  -15.0450   35.1310 C   0  0  0  0  0  0  0  0  0  0  0  0
  -15.9090  -16.0830   36.0420 C   0  0  0  0  0  0  0  0  0  0  0  0
  -16.6810  -16.5500   37.2400 C   0  0  0  0  0  0  0  0  0  0  0  0
  -18.0380  -15.9780   37.5280 C   0  0  0  0  0  0  0  0  0  0  0  0
  -18.6220  -14.9400   36.6160 C   0  0  0  0  0  0  0  0  0  0  0  0
  -15.9620  -14.7240   34.3060 H   0  0  0  0  0  0  0  0  0  0  0  0
  -14.9760  -16.4760   35.8440 H   0  0  0  0  0  0  0  0  0  0  0  0
  -18.5690  -16.3000   38.3520 H   0  0  0  0  0  0  0  0  0  0  0  0
  -19.5560  -14.5470   36.8140 H   0  0  0  0  0  0  0  0  0  0  0  0
  1  8  1  0
  2  3  1  0
  3  4  2  0
  4  9  1  0
  5 10  1  0
  5  4  1  0
  6  5  2  0
  7  6  1  0
  7  2  2  0
 11  6  1  0
 12 11  1  0
 12 20  1  0
 13 12  2  0
 14 13  1  0
 14 19  1  0
 15 14  1  0
 16 15  2  0
 16 17  1  0
 17 18  2  0
 18 19  1  0
 18 23  1  0
 19 11  2  0
 21 16  1  0
 22 17  1  0
 24 26  1  0
 25 24  1  0
 27 28  1  0
 28 33  1  0
 29 28  2  0
 29 30  1  0
 30 31  2  0
 31 32  1  0
 31 24  1  0
 32 36  1  0
 33 37  1  0
 33 32  2  0
 34 29  1  0
 35 30  1  0
M  END
>  <minimizedAffinity>  (193) 
-9.64806366

$$$$

     RDKit          3D

 56 60  0  0  0  0  0  0  0  0999 V2000
  -14.5410  -16.4810   39.9490 C   0  0  0  0  0  0  0  0  0  0  0  0
  -15.7090  -17.4220   39.9740 C   0  0  0  0  0  0  0  0  0  0  0  0
  -17.0830  -16.9200   39.6450 C   0  0  0  0  0  0  0  0  0  0  0  0
  -17.2900  -15.4770   39.2910 C   0  0  0  0  0  0  0  0  0  0  0  0
  -16.1220  -14.5360   39.2650 C   0  0  0  0  0  0  0  0  0  0  0  0
  -14.7470  -15.0380   39.5940 C   0  0  0  0  0  0  0  0  0  0  0  0
  -15.5660  -18.4140   40.2190 H   0  0  0  0  0  0  0  0  0  0  0  0
  -17.8870  -17.5670   39.6630 H   0  0  0  0  0  0  0  0  0  0  0  0
  -16.2640  -13.5430   39.0210 H   0  0  0  0  0  0  0  0  0  0  0  0
  -13.9430  -14.3910   39.5770 H   0  0  0  0  0  0  0  0  0  0  0  0
  -12.4870  -16.7600   37.7800 O   0  0  0  0  0  0  0  0  0  0  0  0
  -12.1390  -17.1230   39.1940 C   0  0  0  0  0  0  0  0  0  0  0  0
  -13.1660  -16.9830   40.2780 N   0  0  0  0  0  0  0  0  0  0  0  0
  -10.7640  -17.6250   39.5230 N   0  0  0  0  0  0  0  0  0  0  0  0
  -12.9370  -17.2210   41.2060 H   0  0  0  0  0  0  0  0  0  0  0  0
  -10.5360  -17.8630   40.4500 H   0  0  0  0  0  0  0  0  0  0  0  0
   -9.7370  -17.7640   38.4380 C   0  0  0  0  0  0  0  0  0  0  0  0
  -10.0370  -17.2710   37.0540 C   0  0  0  0  0  0  0  0  0  0  0  0
   -9.0100  -17.4100   35.9690 C   0  0  0  0  0  0  0  0  0  0  0  0
   -7.6840  -18.0440   36.2700 C   0  0  0  0  0  0  0  0  0  0  0  0
   -7.3840  -18.5370   37.6540 C   0  0  0  0  0  0  0  0  0  0  0  0
   -8.4110  -18.3980   38.7380 C   0  0  0  0  0  0  0  0  0  0  0  0
   -8.1120  -18.8910   40.1230 F   0  0  0  0  0  0  0  0  0  0  0  0
  -10.9490  -16.8350   36.8470 H   0  0  0  0  0  0  0  0  0  0  0  0
   -6.9770  -18.1400   35.5230 H   0  0  0  0  0  0  0  0  0  0  0  0
   -6.4720  -18.9730   37.8610 H   0  0  0  0  0  0  0  0  0  0  0  0
   -9.3090  -16.9170   34.5850 C   0  0  0  0  0  0  0  0  0  0  0  0
   -9.6080  -16.4230   33.2010 F   0  0  0  0  0  0  0  0  0  0  0  0
   -8.9330  -18.2570   34.0260 F   0  0  0  0  0  0  0  0  0  0  0  0
   -9.6840  -15.5760   35.1440 F   0  0  0  0  0  0  0  0  0  0  0  0
  -18.6640  -14.9750   38.9620 O   0  0  0  0  0  0  0  0  0  0  0  0
  -18.8720  -14.0800   37.7760 C   0  0  0  0  0  0  0  0  0  0  0  0
  -19.3140  -12.6610   37.9750 C   0  0  0  0  0  0  0  0  0  0  0  0
  -19.5220  -11.7660   36.7890 C   0  0  0  0  0  0  0  0  0  0  0  0
  -19.2880  -12.2910   35.4040 C   0  0  0  0  0  0  0  0  0  0  0  0
  -19.4100  -11.6490   34.0530 N   0  0  0  0  0  0  0  0  0  0  0  0
  -19.0430  -12.6720   33.0190 C   0  0  0  0  0  0  0  0  0  0  0  0
  -19.0280  -12.4590   31.5350 N   0  0  0  0  0  0  0  0  0  0  0  0
  -19.4030  -11.1230   30.9650 C   0  0  0  0  0  0  0  0  0  0  0  0
  -19.7930  -10.0000   31.8800 O   0  0  0  0  0  0  0  0  0  0  0  0
  -18.6950  -13.9460   33.7310 N   0  0  0  0  0  0  0  0  0  0  0  0
  -18.8460  -13.7110   35.2040 C   0  0  0  0  0  0  0  0  0  0  0  0
  -18.6380  -14.6050   36.3900 C   0  0  0  0  0  0  0  0  0  0  0  0
  -19.4750  -12.3000   38.9290 H   0  0  0  0  0  0  0  0  0  0  0  0
  -19.8260  -10.7890   36.9270 H   0  0  0  0  0  0  0  0  0  0  0  0
  -19.6830  -10.7200   33.8770 H   0  0  0  0  0  0  0  0  0  0  0  0
  -18.7710  -13.1960   30.9340 H   0  0  0  0  0  0  0  0  0  0  0  0
  -18.3340  -15.5820   36.2530 H   0  0  0  0  0  0  0  0  0  0  0  0
  -19.3880  -10.9090   29.4800 C   0  0  0  0  0  0  0  0  0  0  0  0
  -19.3500  -11.9840   28.4360 C   0  0  0  0  0  0  0  0  0  0  0  0
  -19.3460  -11.3230   27.0900 C   0  0  0  0  0  0  0  0  0  0  0  0
  -19.3820   -9.8390   27.3030 C   0  0  0  0  0  0  0  0  0  0  0  0
  -19.4080   -9.5840   28.7800 O   0  0  0  0  0  0  0  0  0  0  0  0
  -19.3300  -13.0020   28.6120 H   0  0  0  0  0  0  0  0  0  0  0  0
  -19.3230  -11.8050   26.1770 H   0  0  0  0  0  0  0  0  0  0  0  0
  -19.3880   -9.1200   26.5620 H   0  0  0  0  0  0  0  0  0  0  0  0
  1  2  1  0
  1 13  1  0
  2  7  1  0
  3  8  1  0
  3  2  2  0
  4  3  1  0
  5  4  2  0
  5  6  1  0
  6  1  2  0
  9  5  1  0
 10  6  1  0
 11 12  2  0
 12 14  1  0
 12 13  1  0
 13 15  1  0
 14 16  1  0
 17 22  1  0
 17 14  1  0
 18 17  2  0
 19 20  2  0
 19 18  1  0
 20 21  1  0
 21 26  1  0
 21 22  2  0
 22 23  1  0
 24 18  1  0
 25 20  1  0
 27 30  1  0
 27 19  1  0
 28 27  1  0
 29 27  1  0
 31  4  1  0
 32 33  1  0
 32 31  1  0
 33 44  1  0
 34 45  1  0
 34 33  2  0
 35 34  1  0
 36 35  1  0
 37 41  2  0
 37 36  1  0
 38 37  1  0
 39 38  1  0
 39 40  2  0
 41 42  1  0
 42 35  2  0
 42 43  1  0
 43 32  2  0
 46 36  1  0
 47 38  1  0
 48 43  1  0
 49 39  1  0
 50 54  1  0
 50 49  2  0
 51 52  2  0
 51 50  1  0
 52 53  1  0
 53 49  1  0
 55 51  1  0
 56 52  1  0
M  END
>  <minimizedAffinity>  (194) 
-2.5953877

$$$$

     RDKit          3D

 40 41  0  0  0  0  0  0  0  0999 V2000
  -10.7610  -15.9370   36.4320 C   0  0  0  0  0  0  0  0  0  0  0  0
   -9.3260  -16.0310   36.8570 C   0  0  0  0  0  0  0  0  0  0  0  0
   -8.9850  -16.4340   38.2610 C   0  0  0  0  0  0  0  0  0  0  0  0
  -10.0790  -16.7420   39.2400 N   0  0  0  0  0  0  0  0  0  0  0  0
  -11.5140  -16.6480   38.8140 C   0  0  0  0  0  0  0  0  0  0  0  0
  -12.6090  -16.9560   39.7930 N   0  0  0  0  0  0  0  0  0  0  0  0
  -11.8560  -16.2450   37.4100 N   0  0  0  0  0  0  0  0  0  0  0  0
   -8.5730  -15.8190   36.1840 H   0  0  0  0  0  0  0  0  0  0  0  0
   -7.9970  -16.4990   38.5540 H   0  0  0  0  0  0  0  0  0  0  0  0
  -12.3850  -17.2200   40.7140 H   0  0  0  0  0  0  0  0  0  0  0  0
  -14.0440  -16.8620   39.3670 C   0  0  0  0  0  0  0  0  0  0  0  0
  -14.5870  -17.8150   38.3440 C   0  0  0  0  0  0  0  0  0  0  0  0
  -16.0220  -17.7210   37.9180 C   0  0  0  0  0  0  0  0  0  0  0  0
  -16.9140  -16.6740   38.5160 C   0  0  0  0  0  3  0  0  0  0  0  0
  -16.3710  -15.7210   39.5400 C   0  0  0  0  0  0  0  0  0  0  0  0
  -14.9360  -15.8150   39.9650 C   0  0  0  0  0  0  0  0  0  0  0  0
  -17.2640  -14.6740   40.1370 O   0  0  0  0  0  0  0  0  0  0  0  0
  -18.6990  -14.5800   39.7120 C   0  0  0  0  0  3  0  0  0  0  0  0
  -19.2420  -15.5320   38.6880 C   0  0  0  0  0  2  0  0  0  0  0  0
  -18.3500  -16.5790   38.0900 O   0  0  0  0  0 15  0  0  0  0  0  0
  -13.9730  -18.5350   37.9320 H   0  0  0  0  0  0  0  0  0  0  0  0
  -16.3960  -18.3760   37.2140 H   0  0  0  0  0  0  0  0  0  0  0  0
  -14.5630  -15.1600   40.6690 H   0  0  0  0  0  0  0  0  0  0  0  0
  -19.3360  -13.8330   40.1380 H   0  0  0  0  0  0  0  0  0  0  0  0
  -19.7230  -14.5120   39.4080 H   0  0  0  0  0  0  0  0  0  0  0  0
  -20.2660  -15.4650   38.3850 H   0  0  0  0  0  0  0  0  0  0  0  0
  -19.6290  -16.2120   37.9580 H   0  0  0  0  0  0  0  0  0  0  0  0
  -14.7750  -13.8790   34.5950 C   0  0  0  0  0  0  0  0  0  0  0  0
  -14.6850  -13.6470   33.1150 C   0  0  0  0  0  0  0  0  0  0  0  0
  -13.4460  -14.0430   32.3680 N   0  0  0  0  0  0  0  0  0  0  0  0
  -12.2970  -14.6700   33.1000 N   0  0  0  0  0  0  0  0  0  0  0  0
  -10.9580  -15.1600   32.6340 N   0  0  0  0  0  0  0  0  0  0  0  0
  -10.2200  -15.6940   33.8250 C   0  0  0  0  0  0  0  0  0  0  0  0
  -11.1020  -15.5350   35.0270 C   0  0  0  0  0  0  0  0  0  0  0  0
  -12.3870  -14.9010   34.5790 C   0  0  0  0  0  0  0  0  0  0  0  0
  -13.6250  -14.5060   35.3260 C   0  0  0  0  0  0  0  0  0  0  0  0
  -15.6270  -13.6060   35.1090 H   0  0  0  0  0  0  0  0  0  0  0  0
  -15.4760  -13.2160   32.6120 H   0  0  0  0  0  0  0  0  0  0  0  0
   -9.2710  -16.1010   33.8190 H   0  0  0  0  0  0  0  0  0  0  0  0
  -13.6870  -14.6650   36.3440 H   0  0  0  0  0  0  0  0  0  0  0  0
  1  2  1  0
  1  7  2  0
  2  3  2  0
  3  9  1  0
  3  4  1  0
  5  4  2  0
  5  6  1  0
  6 10  1  0
  7  5  1  0
  8  2  1  0
 11  6  1  0
 11 16  1  0
 12 11  2  0
 13 12  1  0
 13 14  2  0
 14 15  1  0
 15 16  2  0
 15 17  1  0
 16 23  1  0
 18 17  1  0
 18 24  1  0
 21 12  1  0
 22 13  1  0
 25 18  1  0
 26 19  1  0
 27 19  1  0
 28 37  1  0
 28 36  2  0
 29 28  1  0
 30 31  1  0
 30 29  2  0
 31 35  1  0
 32 31  1  0
 32 33  2  0
 33 34  1  0
 34  1  1  0
 35 34  2  0
 35 36  1  0
 36 40  1  0
 38 29  1  0
 39 33  1  0
M  END
>  <minimizedAffinity>  (195) 
-10.0385809

$$$$

     RDKit          3D

 49 43  0  0  0  0  0  0  0  0999 V2000
  -17.3640  -13.5410   33.5250 C   0  0  0  0  0  2  0  0  0  0  0  0
  -17.9810  -13.2300   32.7080 H   0  0  0  0  0  0  0  0  0  0  0  0
  -16.9300  -13.3710   32.5620 H   0  0  0  0  0  0  0  0  0  0  0  0
  -15.8910  -13.7380   33.3200 C   0  0  0  0  0  2  0  0  0  0  0  0
  -15.2420  -13.2750   32.0480 O   0  0  0  0  0  1  0  0  0  0  0  0
  -15.0660  -14.3990   34.3840 N   0  0  0  0  0  0  0  0  0  0  0  0
  -13.5940  -14.5970   34.1790 C   0  0  0  0  0  0  0  0  0  0  0  0
  -12.8100  -14.1880   32.9660 N   0  0  0  0  0  0  0  0  0  0  0  0
  -11.3780  -14.5770   33.1870 N   0  0  0  0  0  0  0  0  0  0  0  0
  -11.2770  -15.2260   34.5350 C   0  0  0  0  0  0  0  0  0  0  0  0
  -10.1150  -15.8070   35.2840 N   0  0  0  0  0  0  0  0  0  0  0  0
  -10.3210  -16.4010   36.6460 C   0  0  0  0  0  0  0  0  0  0  0  0
  -11.6900  -16.4130   37.2580 C   0  0  0  0  0  0  0  0  0  0  0  0
  -11.8970  -17.0070   38.6200 Br  0  0  0  0  0  0  0  0  0  0  0  0
  -12.8530  -15.8320   36.5090 C   0  0  0  0  0  0  0  0  0  0  0  0
  -12.6460  -15.2380   35.1480 C   0  0  0  0  0  0  0  0  0  0  0  0
  -15.4920  -14.7040   35.2180 H   0  0  0  0  0  0  0  0  0  0  0  0
  -10.6360  -14.4310   32.5570 H   0  0  0  0  0  0  0  0  0  0  0  0
  -13.7950  -15.8410   36.9310 H   0  0  0  0  0  0  0  0  0  0  0  0
   -9.1590  -16.9820   37.3950 C   0  0  0  0  0  0  0  0  0  0  0  0
   -8.2040  -16.2230   38.2680 C   0  0  0  0  0  0  0  0  0  0  0  0
   -7.2020  -17.1960   38.8150 C   0  0  0  0  0  0  0  0  0  0  0  0
   -7.5380  -18.5560   38.2800 C   0  0  0  0  0  0  0  0  0  0  0  0
   -8.7470  -18.4250   37.4030 S   0  0  0  0  0  0  0  0  0  0  0  0
   -8.2320  -15.2090   38.4580 H   0  0  0  0  0  0  0  0  0  0  0  0
   -6.4200  -16.9700   39.4480 H   0  0  0  0  0  0  0  0  0  0  0  0
   -7.0270  -19.4310   38.4810 H   0  0  0  0  0  0  0  0  0  0  0  0
  -19.1840  -14.2510   37.5780 N   0  0  0  0  0 15  0  0  0  0  0  0
  -18.6130  -15.4000   36.8010 C   0  0  0  0  0  2  0  0  0  0  0  0
  -18.0060  -15.1630   35.4500 C   0  0  0  0  0  2  0  0  0  0  0  0
  -17.9700  -13.7780   34.8760 C   0  0  0  0  0  1  0  0  0  0  0  0
  -18.5410  -12.6290   35.6540 C   0  0  0  0  0  2  0  0  0  0  0  0
  -19.1480  -12.8660   37.0050 C   0  0  0  0  0  2  0  0  0  0  0  0
  -18.6380  -16.3890   37.2100 H   0  0  0  0  0  0  0  0  0  0  0  0
  -18.2060  -16.2190   36.2460 H   0  0  0  0  0  0  0  0  0  0  0  0
  -17.5990  -15.9830   34.8950 H   0  0  0  0  0  0  0  0  0  0  0  0
  -17.5730  -14.9940   34.4860 H   0  0  0  0  0  0  0  0  0  0  0  0
  -17.9450  -12.7890   34.4670 H   0  0  0  0  0  0  0  0  0  0  0  0
  -18.5150  -11.6410   35.2440 H   0  0  0  0  0  0  0  0  0  0  0  0
  -18.9480  -11.8090   36.2090 H   0  0  0  0  0  0  0  0  0  0  0  0
  -19.5550  -12.0460   37.5600 H   0  0  0  0  0  0  0  0  0  0  0  0
  -19.5800  -13.0350   37.9690 H   0  0  0  0  0  0  0  0  0  0  0  0
  -19.7910  -14.4880   38.9300 C   0  0  0  0  0  3  0  0  0  0  0  0
  -20.8510  -14.5900   39.0290 H   0  0  0  0  0  0  0  0  0  0  0  0
  -20.4180  -14.4210   38.0660 H   0  0  0  0  0  0  0  0  0  0  0  0
  -18.9100  -14.5830   40.1410 C   0  0  0  0  0  0  0  0  0  0  0  0
  -17.8510  -14.4820   40.0410 H   0  0  0  0  0  0  0  0  0  0  0  0
  -19.3440  -14.7520   41.1050 H   0  0  0  0  0  0  0  0  0  0  0  0
  -18.2830  -14.6510   41.0050 H   0  0  0  0  0  0  0  0  0  0  0  0
  2  1  1  0
  3  1  1  0
  4  6  1  0
  5  4  1  0
  6 17  1  0
  7  6  1  0
  7 16  1  0
  8  9  1  0
  8  7  2  0
  9 10  1  0
 10 16  2  0
 10 11  1  0
 11 12  2  0
 12 13  1  0
 12 20  1  0
 13 14  1  0
 15 19  1  0
 15 13  2  0
 16 15  1  0
 18  9  1  0
 20 24  1  0
 20 21  2  0
 21 25  1  0
 21 22  1  0
 22 26  1  0
 23 27  1  0
 23 22  2  0
 24 23  1  0
 29 34  1  0
 32 40  1  0
 33 41  1  0
 33 42  1  0
 35 29  1  0
 36 30  1  0
 37 30  1  0
 38 31  1  0
 39 32  1  0
 43 44  1  0
 43 46  1  0
 45 43  1  0
 46 49  1  0
 46 48  1  0
 47 46  1  0
M  END
>  <minimizedAffinity>  (196) 
-9.43973351

$$$$

     RDKit          3D

 50 49  0  0  0  0  0  0  0  0999 V2000
  -17.0220  -13.4390   33.3890 C   0  0  0  0  0  0  0  0  0  0  0  0
  -15.8240  -14.0870   34.0170 C   0  0  0  0  0  2  0  0  0  0  0  0
  -14.4540  -13.8250   33.4650 C   0  0  0  0  0  3  0  0  0  0  0  0
  -14.2830  -12.9140   32.2850 C   0  0  0  0  0  3  0  0  0  0  0  0
  -15.4810  -12.2660   31.6580 C   0  0  0  0  0 15  0  0  0  0  0  0
  -15.3090  -11.3550   30.4790 O   0  0  0  0  0 15  0  0  0  0  0  0
  -16.8510  -12.5280   32.2100 N   0  0  0  0  0  0  0  0  0  0  0  0
  -14.5770  -14.4750   34.3050 H   0  0  0  0  0  0  0  0  0  0  0  0
  -13.3050  -12.7270   31.8910 H   0  0  0  0  0  0  0  0  0  0  0  0
  -14.1600  -12.2640   31.4440 H   0  0  0  0  0  0  0  0  0  0  0  0
  -17.6370  -12.1020   31.7980 H   0  0  0  0  0  0  0  0  0  0  0  0
  -13.2560  -14.4740   34.0920 C   0  0  0  0  0  0  0  0  0  0  0  0
  -13.0570  -14.4040   35.5770 C   0  0  0  0  0  0  0  0  0  0  0  0
  -11.8590  -15.0530   36.2040 C   0  0  0  0  0  0  0  0  0  0  0  0
  -10.8600  -15.7710   35.3460 C   0  0  0  0  0  0  0  0  0  0  0  0
  -11.0590  -15.8410   33.8610 C   0  0  0  0  0  0  0  0  0  0  0  0
  -12.2570  -15.1920   33.2340 C   0  0  0  0  0  0  0  0  0  0  0  0
  -13.7440  -13.9100   36.1670 H   0  0  0  0  0  0  0  0  0  0  0  0
  -11.7220  -15.0050   37.2260 H   0  0  0  0  0  0  0  0  0  0  0  0
  -10.3710  -16.3350   33.2710 H   0  0  0  0  0  0  0  0  0  0  0  0
  -12.3940  -15.2400   32.2120 H   0  0  0  0  0  0  0  0  0  0  0  0
   -9.6610  -16.4200   35.9740 C   0  0  0  0  0  0  0  0  0  0  0  0
   -8.4630  -17.0680   36.6010 F   0  0  0  0  0  0  0  0  0  0  0  0
   -9.2650  -16.9790   34.6390 F   0  0  0  0  0  0  0  0  0  0  0  0
  -10.0570  -15.8600   37.3080 F   0  0  0  0  0  0  0  0  0  0  0  0
  -18.3920  -13.7010   33.9410 C   0  0  0  0  0  0  0  0  0  0  0  0
  -18.5150  -14.3500   34.7820 H   0  0  0  0  0  0  0  0  0  0  0  0
  -19.2470  -13.2380   33.4940 H   0  0  0  0  0  0  0  0  0  0  0  0
  -19.3690  -13.8880   34.3350 H   0  0  0  0  0  0  0  0  0  0  0  0
  -15.9960  -14.9980   35.1960 C   0  0  0  0  0  0  0  0  0  0  0  0
  -15.6680  -16.4570   35.0710 O   0  0  0  0  0  0  0  0  0  0  0  0
  -16.4950  -14.4510   36.5000 N   0  0  0  0  0  0  0  0  0  0  0  0
  -16.7100  -13.4940   36.5820 H   0  0  0  0  0  0  0  0  0  0  0  0
  -16.6670  -15.3620   37.6790 C   0  0  0  0  0  0  0  0  0  0  0  0
  -17.8860  -16.2280   37.7860 C   0  0  0  0  0  0  0  0  0  0  0  0
  -18.0580  -17.1390   38.9660 C   0  0  0  0  0  0  0  0  0  0  0  0
  -17.0100  -17.1830   40.0380 C   0  0  0  0  0  0  0  0  0  0  0  0
  -16.9060  -17.9760   41.3080 N   0  0  0  0  0  0  0  0  0  0  0  0
  -15.6220  -17.5980   41.9850 N   0  0  0  0  0  0  0  0  0  0  0  0
  -14.9330  -16.5730   41.1340 C   0  0  0  0  0  0  0  0  0  0  0  0
  -15.7910  -16.3160   39.9310 C   0  0  0  0  0  0  0  0  0  0  0  0
  -15.6190  -15.4060   38.7520 C   0  0  0  0  0  0  0  0  0  0  0  0
  -18.6070  -16.1980   37.0480 H   0  0  0  0  0  0  0  0  0  0  0  0
  -18.8970  -17.7360   39.0390 H   0  0  0  0  0  0  0  0  0  0  0  0
  -17.5650  -18.6290   41.6380 H   0  0  0  0  0  0  0  0  0  0  0  0
  -14.7800  -14.8090   38.6780 H   0  0  0  0  0  0  0  0  0  0  0  0
  -13.6160  -15.9190   41.4340 C   0  0  0  0  0  0  0  0  0  0  0  0
  -13.0820  -16.1750   42.3260 H   0  0  0  0  0  0  0  0  0  0  0  0
  -13.2120  -15.1960   40.7570 H   0  0  0  0  0  0  0  0  0  0  0  0
  -12.6780  -15.4520   41.6480 H   0  0  0  0  0  0  0  0  0  0  0  0
  1 26  1  0
  1  2  1  0
  2 30  1  0
  3 12  1  0
  3  8  1  0
  4  3  1  0
  7  1  2  0
  9  4  1  0
 10  4  1  0
 11  7  1  0
 12 13  1  0
 13 18  1  0
 13 14  2  0
 14 19  1  0
 15 22  1  0
 15 14  1  0
 16 15  2  0
 17 16  1  0
 17 12  2  0
 20 16  1  0
 21 17  1  0
 22 23  1  0
 22 25  1  0
 24 22  1  0
 26 29  1  0
 26 27  1  0
 28 26  1  0
 30 32  1  0
 31 30  2  0
 32 33  1  0
 32 34  1  0
 34 35  2  0
 34 42  1  0
 35 36  1  0
 36 44  1  0
 36 37  2  0
 37 38  1  0
 38 45  1  0
 38 39  1  0
 40 47  1  0
 40 39  2  0
 41 37  1  0
 41 40  1  0
 42 41  2  0
 43 35  1  0
 46 42  1  0
 47 50  1  0
 47 48  1  0
 49 47  1  0
M  END
>  <minimizedAffinity>  (197) 
-10.4561319

$$$$

     RDKit          3D

 54 57  0  0  0  0  0  0  0  0999 V2000
  -13.6640  -15.5770   36.3050 N   0  0  0  0  0  0  0  0  0  0  0  0
  -14.8290  -15.0720   35.5070 C   0  0  0  0  0  0  0  0  0  0  0  0
  -14.7620  -14.4610   34.1390 C   0  0  0  0  0  0  0  0  0  0  0  0
  -13.5170  -14.2480   33.3290 O   0  0  0  0  0  0  0  0  0  0  0  0
  -16.1570  -14.1000   33.7220 N   0  0  0  0  0  0  0  0  0  0  0  0
  -17.0870  -14.4890   34.8340 C   0  0  0  0  0  0  0  0  0  0  0  0
  -18.5750  -14.3730   34.9840 C   0  0  0  0  0  0  0  0  0  0  0  0
  -19.2420  -14.8570   36.2370 C   0  0  0  0  0  0  0  0  0  0  0  0
  -18.4220  -15.4580   37.3390 C   0  0  0  0  0  0  0  0  0  0  0  0
  -16.9340  -15.5730   37.1890 C   0  0  0  0  0  0  0  0  0  0  0  0
  -16.2660  -15.0890   35.9360 C   0  0  0  0  0  0  0  0  0  0  0  0
  -16.4170  -13.6830   32.8690 H   0  0  0  0  0  0  0  0  0  0  0  0
  -19.1390  -13.9600   34.2250 H   0  0  0  0  0  0  0  0  0  0  0  0
  -20.2660  -14.7780   36.3400 H   0  0  0  0  0  0  0  0  0  0  0  0
  -16.3690  -15.9860   37.9480 H   0  0  0  0  0  0  0  0  0  0  0  0
  -19.0890  -15.9420   38.5920 C   0  0  0  0  0  0  0  0  0  0  0  0
  -19.7900  -14.9690   39.4930 O   0  0  0  0  0  0  0  0  0  0  0  0
  -19.0550  -17.4000   38.9440 N   0  0  0  0  0  0  0  0  0  0  0  0
  -18.5960  -18.0380   38.3530 H   0  0  0  0  0  0  0  0  0  0  0  0
  -19.7230  -17.8840   40.1970 C   0  0  0  0  0  0  0  0  0  0  0  0
  -20.7460  -18.1950   40.1730 H   0  0  0  0  0  0  0  0  0  0  0  0
  -20.1990  -18.2300   41.0910 H   0  0  0  0  0  0  0  0  0  0  0  0
  -18.9550  -17.9330   41.4850 C   0  0  0  0  0  0  0  0  0  0  0  0
  -19.3670  -17.4970   42.3710 H   0  0  0  0  0  0  0  0  0  0  0  0
  -18.4070  -17.9690   42.4040 H   0  0  0  0  0  0  0  0  0  0  0  0
  -17.6090  -18.5940   41.5310 C   0  0  0  0  0  0  0  0  0  0  0  0
  -17.5220  -19.6100   41.8550 H   0  0  0  0  0  0  0  0  0  0  0  0
  -16.6490  -19.0650   41.5640 H   0  0  0  0  0  0  0  0  0  0  0  0
  -16.3850  -17.8300   41.1220 N   0  0  0  0  0  0  0  0  0  0  0  0
  -15.7110  -16.7520   41.9190 C   0  0  0  0  0  0  0  0  0  0  0  0
  -14.5290  -16.2660   41.1330 C   0  0  0  0  0  0  0  0  0  0  0  0
  -14.4710  -17.0440   39.8520 N   0  0  0  0  0  0  0  0  0  0  0  0
  -15.6180  -18.0100   39.8450 C   0  0  0  0  0  0  0  0  0  0  0  0
  -16.0090  -16.4050   42.8440 H   0  0  0  0  0  0  0  0  0  0  0  0
  -13.8700  -15.5260   41.4240 H   0  0  0  0  0  0  0  0  0  0  0  0
  -15.8410  -18.6810   39.0940 H   0  0  0  0  0  0  0  0  0  0  0  0
  -12.2770  -15.4940   35.7430 N   0  0  0  0  0  0  0  0  0  0  0  0
  -12.1200  -15.0340   34.8860 H   0  0  0  0  0  0  0  0  0  0  0  0
   -8.8300  -17.3440   37.9680 C   0  0  0  0  0  0  0  0  0  0  0  0
  -10.1510  -17.1540   38.6530 C   0  0  0  0  0  0  0  0  0  0  0  0
  -11.3000  -16.5370   37.9120 C   0  0  0  0  0  0  0  0  0  0  0  0
  -11.1270  -16.1110   36.4840 C   0  0  0  0  0  0  0  0  0  0  0  0
   -9.8080  -16.3000   35.7980 C   0  0  0  0  0  0  0  0  0  0  0  0
   -8.6580  -16.9170   36.5400 C   0  0  0  0  0  0  0  0  0  0  0  0
  -10.2690  -17.4480   39.6360 H   0  0  0  0  0  0  0  0  0  0  0  0
  -12.2080  -16.4070   38.3840 H   0  0  0  0  0  0  0  0  0  0  0  0
   -9.6890  -16.0060   34.8160 H   0  0  0  0  0  0  0  0  0  0  0  0
   -7.7500  -17.0470   36.0690 H   0  0  0  0  0  0  0  0  0  0  0  0
   -7.6810  -17.9600   38.7090 S   0  0  1  0  0  0  0  0  0  0  0  0
   -8.4250  -19.2620   38.7780 O   0  0  0  0  0  0  0  0  0  0  0  0
   -6.9380  -16.6600   38.6410 O   0  0  0  0  0  0  0  0  0  0  0  0
   -6.5330  -18.5780   39.4510 N   0  0  0  0  0  0  0  0  0  0  0  0
   -6.5800  -19.5540   39.7430 H   0  0  0  0  0  0  0  0  0  0  0  0
   -5.7040  -18.0210   39.6620 H   0  0  0  0  0  0  0  0  0  0  0  0
  2 11  1  0
  2  1  2  0
  3  2  1  0
  4  3  2  0
  5  3  1  0
  5  6  1  0
  6  7  2  0
  6 11  1  0
  7  8  1  0
  8 14  1  0
  8  9  2  0
  9 16  1  0
 10  9  1  0
 10 15  1  0
 11 10  2  0
 12  5  1  0
 13  7  1  0
 16 18  1  0
 16 17  2  0
 18 20  1  0
 19 18  1  0
 20 22  1  0
 20 23  1  0
 21 20  1  0
 23 26  1  0
 23 24  1  0
 23 25  1  0
 26 28  1  0
 26 27  1  0
 29 26  1  0
 29 30  1  0
 30 34  1  0
 31 35  1  0
 31 30  2  0
 32 31  1  0
 33 32  2  0
 33 29  1  0
 36 33  1  0
 37  1  1  0
 37 42  1  0
 38 37  1  0
 39 40  1  0
 39 49  1  0
 40 45  1  0
 41 46  1  0
 41 40  2  0
 42 41  1  0
 43 42  2  0
 43 44  1  0
 44 39  2  0
 47 43  1  0
 48 44  1  0
 49 50  2  0
 49 52  1  0
 51 49  2  0
 52 54  1  0
 52 53  1  0
M  END
>  <minimizedAffinity>  (198) 
-10.2001648

$$$$

     RDKit          3D

 51 48  0  0  0  0  0  0  0  0999 V2000
  -12.0040  -16.1370   36.5640 C   0  0  0  0  0  0  0  0  0  0  0  0
  -10.5450  -16.4790   36.6050 N   0  0  0  0  0  0  0  0  0  0  0  0
  -10.2800  -17.2300   37.8770 C   0  0  0  0  0  0  0  0  0  0  0  0
  -11.5760  -17.3520   38.6220 N   0  0  0  0  0  0  0  0  0  0  0  0
  -12.6420  -16.6760   37.8110 C   0  0  0  0  0  0  0  0  0  0  0  0
  -11.7040  -17.7970   39.4900 H   0  0  0  0  0  0  0  0  0  0  0  0
  -14.7010  -12.5020   31.0740 N   0  0  0  0  0  0  0  0  0  0  0  0
  -15.0590  -13.1950   32.3540 C   0  0  0  0  0  0  0  0  0  0  0  0
  -16.4360  -13.3200   32.9350 C   0  0  0  0  0  3  0  0  0  0  0  0
  -16.3320  -14.0880   34.2190 C   0  0  0  0  0  2  0  0  0  0  0  0
  -14.8880  -14.4380   34.4320 C   0  0  0  0  0  3  0  0  0  0  0  0
  -14.1890  -15.1880   35.5270 C   0  0  0  0  0  0  0  0  0  0  0  0
  -12.7030  -15.3870   35.4700 C   0  0  0  0  0  0  0  0  0  0  0  0
  -11.9170  -14.8350   34.3170 C   0  0  0  0  0  0  0  0  0  0  0  0
  -12.6160  -14.0850   33.2230 C   0  0  0  0  0  0  0  0  0  0  0  0
  -14.1020  -13.8870   33.2800 C   0  0  0  0  0  0  0  0  0  0  0  0
  -17.3360  -12.9290   32.5070 H   0  0  0  0  0  0  0  0  0  0  0  0
  -17.3450  -13.4930   33.4730 H   0  0  0  0  0  0  0  0  0  0  0  0
  -17.1420  -14.3420   34.8680 H   0  0  0  0  0  0  0  0  0  0  0  0
  -16.0910  -14.6420   35.1020 H   0  0  0  0  0  0  0  0  0  0  0  0
  -14.7300  -15.5680   36.3200 H   0  0  0  0  0  0  0  0  0  0  0  0
  -10.8950  -14.9720   34.2780 H   0  0  0  0  0  0  0  0  0  0  0  0
  -12.0750  -13.7060   32.4300 H   0  0  0  0  0  0  0  0  0  0  0  0
  -15.7710  -11.8510   30.2480 O   0  0  0  0  0  0  0  0  0  0  0  0
  -15.5480  -11.4180   29.4480 H   0  0  0  0  0  0  0  0  0  0  0  0
   -8.9520  -17.7660   38.3240 C   0  0  0  0  0  2  0  0  0  0  0  0
   -8.6470  -19.2280   38.1850 C   0  0  0  0  0  2  0  0  0  0  0  0
   -7.3200  -19.7640   38.6320 C   0  0  0  0  0  2  0  0  0  0  0  0
   -6.2970  -18.8370   39.2190 N   0  0  0  0  0  2  0  0  0  0  0  0
   -6.6010  -17.3750   39.3590 C   0  0  0  0  0  3  0  0  0  0  0  0
   -7.9290  -16.8390   38.9120 C   0  0  0  0  0  2  0  0  0  0  0  0
   -8.0050  -18.1480   38.6440 H   0  0  0  0  0  0  0  0  0  0  0  0
   -9.3780  -19.8890   37.7660 H   0  0  0  0  0  0  0  0  0  0  0  0
   -8.4310  -20.2710   38.0850 H   0  0  0  0  0  0  0  0  0  0  0  0
   -7.1030  -20.8060   38.5330 H   0  0  0  0  0  0  0  0  0  0  0  0
   -6.3730  -20.1460   38.9510 H   0  0  0  0  0  0  0  0  0  0  0  0
   -5.3940  -19.2020   39.5240 H   0  0  0  0  0  0  0  0  0  0  0  0
   -5.8710  -16.7140   39.7780 H   0  0  0  0  0  0  0  0  0  0  0  0
   -6.8180  -16.3320   39.4590 H   0  0  0  0  0  0  0  0  0  0  0  0
   -8.1460  -15.7960   39.0110 H   0  0  0  0  0  0  0  0  0  0  0  0
   -8.8760  -16.4570   38.5920 H   0  0  0  0  0  0  0  0  0  0  0  0
  -14.0910  -16.5590   38.1800 C   0  0  0  0  0  0  0  0  0  0  0  0
  -15.0830  -17.5500   37.6490 C   0  0  0  0  0  0  0  0  0  0  0  0
  -16.5320  -17.4320   38.0190 C   0  0  0  0  0  0  0  0  0  0  0  0
  -16.9880  -16.3240   38.9210 N   0  0  0  0  0  0  0  0  0  0  0  0
  -15.9960  -15.3330   39.4520 C   0  0  0  0  0  0  0  0  0  0  0  0
  -14.5470  -15.4500   39.0820 C   0  0  0  0  0  0  0  0  0  0  0  0
  -14.7690  -18.3120   37.0290 H   0  0  0  0  0  0  0  0  0  0  0  0
  -17.2150  -18.1140   37.6540 H   0  0  0  0  0  0  0  0  0  0  0  0
  -16.3100  -14.5700   40.0720 H   0  0  0  0  0  0  0  0  0  0  0  0
  -13.8650  -14.7680   39.4480 H   0  0  0  0  0  0  0  0  0  0  0  0
  1  2  1  0
  1  5  2  0
  2  3  2  0
  3 26  1  0
  3  4  1  0
  4  6  1  0
  5 42  1  0
  5  4  1  0
  7  8  2  0
  8  9  1  0
  8 16  1  0
  9 18  1  0
 10 19  1  0
 10 20  1  0
 11 12  1  0
 12 21  1  0
 13 12  2  0
 13  1  1  0
 14 13  1  0
 15 16  1  0
 15 14  2  0
 16 11  2  0
 17  9  1  0
 22 14  1  0
 23 15  1  0
 24  7  1  0
 25 24  1  0
 26 32  1  0
 28 36  1  0
 29 30  1  0
 29 37  1  0
 30 39  1  0
 30 38  1  0
 31 40  1  0
 33 27  1  0
 34 27  1  0
 35 28  1  0
 41 31  1  0
 42 47  1  0
 43 44  1  0
 43 42  2  0
 44 45  2  0
 45 46  1  0
 46 50  1  0
 47 51  1  0
 47 46  2  0
 48 43  1  0
 49 44  1  0
M  END
>  <minimizedAffinity>  (199) 
-10.6463404

$$$$

     RDKit          3D

 44 48  0  0  0  0  0  0  0  0999 V2000
  -16.5160  -16.0710   37.6090 C   0  0  0  0  0  0  0  0  0  0  0  0
  -17.9870  -16.3610   37.6590 N   0  0  0  0  0  0  0  0  0  0  0  0
  -18.2820  -17.0320   38.9680 N   0  0  0  0  0  0  0  0  0  0  0  0
  -19.5580  -17.5460   39.5670 N   0  0  0  0  0  0  0  0  0  0  0  0
  -19.5450  -18.1830   40.9250 C   0  0  0  0  0  0  0  0  0  0  0  0
  -18.2570  -18.3070   41.6830 C   0  0  0  0  0  0  0  0  0  0  0  0
  -16.9810  -17.7940   41.0840 C   0  0  0  0  0  0  0  0  0  0  0  0
  -16.9940  -17.1560   39.7270 C   0  0  0  0  0  0  0  0  0  0  0  0
  -15.9020  -16.5620   38.8860 C   0  0  0  0  0  0  0  0  0  0  0  0
  -20.4230  -18.5370   41.3370 H   0  0  0  0  0  0  0  0  0  0  0  0
  -18.2480  -18.7460   42.6180 H   0  0  0  0  0  0  0  0  0  0  0  0
  -16.0950  -17.8790   41.6060 H   0  0  0  0  0  0  0  0  0  0  0  0
  -13.6000  -13.4120   33.0900 Cl  0  0  0  0  0  0  0  0  0  0  0  0
  -14.3290  -14.0770   34.2200 C   0  0  0  0  0  0  0  0  0  0  0  0
  -13.6120  -14.3740   35.5030 C   0  0  0  0  0  0  0  0  0  0  0  0
  -14.3410  -15.0380   36.6330 C   0  0  0  0  0  0  0  0  0  0  0  0
  -15.7870  -15.4070   36.4790 C   0  0  0  0  0  0  0  0  0  0  0  0
  -16.5040  -15.1100   35.1950 C   0  0  0  0  0  0  0  0  0  0  0  0
  -15.7750  -14.4450   34.0660 C   0  0  0  0  0  0  0  0  0  0  0  0
  -12.6170  -14.1200   35.6090 H   0  0  0  0  0  0  0  0  0  0  0  0
  -13.8480  -15.2420   37.5170 H   0  0  0  0  0  0  0  0  0  0  0  0
  -17.4990  -15.3630   35.0890 H   0  0  0  0  0  0  0  0  0  0  0  0
  -16.2680  -14.2410   33.1820 H   0  0  0  0  0  0  0  0  0  0  0  0
  -14.4520  -16.4750   39.2590 C   0  0  0  0  0  0  0  0  0  0  0  0
  -14.0420  -15.7820   40.5240 C   0  0  0  0  0  0  0  0  0  0  0  0
  -12.5930  -15.6950   40.8960 C   0  0  0  0  0  0  0  0  0  0  0  0
  -11.5510  -16.3010   40.0030 N   0  0  0  0  0  0  0  0  0  0  0  0
  -11.9600  -16.9930   38.7370 C   0  0  0  0  0  0  0  0  0  0  0  0
  -10.9190  -17.5990   37.8430 N   0  0  0  0  0  0  0  0  0  0  0  0
  -13.4110  -17.0800   38.3650 N   0  0  0  0  0  0  0  0  0  0  0  0
  -14.7600  -15.3650   41.1390 H   0  0  0  0  0  0  0  0  0  0  0  0
  -12.3110  -15.2180   41.7680 H   0  0  0  0  0  0  0  0  0  0  0  0
  -11.1870  -18.0540   37.0120 H   0  0  0  0  0  0  0  0  0  0  0  0
   -9.4680  -17.5120   38.2150 C   0  0  0  0  0  0  0  0  0  0  0  0
   -8.7580  -16.1920   38.1600 C   0  0  0  0  0  0  0  0  0  0  0  0
   -7.3080  -16.1050   38.5320 C   0  0  0  0  0  0  0  0  0  0  0  0
   -6.5670  -17.3370   38.9590 C   0  0  0  0  0  0  0  0  0  0  0  0
   -7.2770  -18.6570   39.0130 C   0  0  0  0  0  0  0  0  0  0  0  0
   -8.7280  -18.7450   38.6420 C   0  0  0  0  0  0  0  0  0  0  0  0
   -9.2680  -15.3430   37.8670 H   0  0  0  0  0  0  0  0  0  0  0  0
   -6.8190  -15.1960   38.4940 H   0  0  0  0  0  0  0  0  0  0  0  0
   -5.5690  -17.2770   39.2150 H   0  0  0  0  0  0  0  0  0  0  0  0
   -6.7680  -19.5060   39.3070 H   0  0  0  0  0  0  0  0  0  0  0  0
   -9.2170  -19.6520   38.6790 H   0  0  0  0  0  0  0  0  0  0  0  0
  1  2  2  0
  1  9  1  0
  2  3  1  0
  3  4  1  0
  3  8  1  0
  4  5  2  0
  5 10  1  0
  5  6  1  0
  6 11  1  0
  7 12  1  0
  7  6  2  0
  8  7  1  0
  9 24  1  0
  9  8  2  0
 13 14  1  0
 14 15  1  0
 15 20  1  0
 15 16  2  0
 16 21  1  0
 17 16  1  0
 17  1  1  0
 18 17  2  0
 19 14  2  0
 19 18  1  0
 22 18  1  0
 23 19  1  0
 24 25  1  0
 25 26  2  0
 25 31  1  0
 26 32  1  0
 27 26  1  0
 28 27  2  0
 29 34  1  0
 29 28  1  0
 30 28  1  0
 30 24  2  0
 33 29  1  0
 34 39  1  0
 35 34  2  0
 35 36  1  0
 36 37  2  0
 37 38  1  0
 37 42  1  0
 38 43  1  0
 39 44  1  0
 39 38  2  0
 40 35  1  0
 41 36  1  0
M  END
>  <minimizedAffinity>  (200) 
-9.86393642

$$$$

     RDKit          3D

 38 37  0  0  0  0  0  0  0  0999 V2000
  -10.3650  -16.2270   36.0070 C   0  0  0  0  0  0  0  0  0  0  0  0
  -10.0500  -15.7460   34.6220 N   0  0  0  0  0  0  0  0  0  0  0  0
  -11.3070  -15.1830   34.0290 C   0  0  0  0  0  3  0  0  0  0  0  0
  -12.4000  -15.3170   35.0480 N   0  0  0  0  0  0  0  0  0  0  0  0
  -11.8180  -15.9620   36.2700 C   0  0  0  0  0  0  0  0  0  0  0  0
  -13.6590  -14.7540   34.4550 C   0  0  0  0  0  3  0  0  0  0  0  0
  -13.3420  -14.2730   33.0690 C   0  0  0  0  0  2  0  0  0  0  0  0
  -11.8900  -14.5380   32.8060 C   0  0  0  0  0  2  0  0  0  0  0  0
  -14.6130  -14.7050   34.9360 H   0  0  0  0  0  0  0  0  0  0  0  0
  -14.4620  -14.3210   33.8950 H   0  0  0  0  0  0  0  0  0  0  0  0
  -14.0330  -13.8200   32.3880 H   0  0  0  0  0  0  0  0  0  0  0  0
  -12.9610  -13.9830   32.1120 H   0  0  0  0  0  0  0  0  0  0  0  0
  -11.3620  -14.3080   31.9040 H   0  0  0  0  0  0  0  0  0  0  0  0
  -10.8510  -14.7910   32.7740 H   0  0  0  0  0  0  0  0  0  0  0  0
  -12.5590  -16.2850   37.5340 C   0  0  0  0  0  0  0  0  0  0  0  0
  -11.8970  -16.0820   38.8640 C   0  0  0  0  0  0  0  0  0  0  0  0
  -12.6370  -16.4050   40.1280 C   0  0  0  0  0  0  0  0  0  0  0  0
  -14.0400  -16.9310   40.0610 C   0  0  0  0  0  3  0  0  0  0  0  0
  -14.7020  -17.1340   38.7310 C   0  0  0  0  0  0  0  0  0  0  0  0
  -13.9620  -16.8110   37.4670 C   0  0  0  0  0  0  0  0  0  0  0  0
  -16.0850  -17.6630   38.9780 O   0  0  0  0  0  0  0  0  0  0  0  0
  -16.2760  -17.7870   40.4610 C   0  0  0  0  0  3  0  0  0  0  0  0
  -15.0120  -17.3350   41.1300 O   0  0  0  0  0 15  0  0  0  0  0  0
  -10.9320  -15.7200   38.9100 H   0  0  0  0  0  0  0  0  0  0  0  0
  -12.1810  -16.2650   41.0430 H   0  0  0  0  0  0  0  0  0  0  0  0
  -14.4180  -16.9510   36.5520 H   0  0  0  0  0  0  0  0  0  0  0  0
  -17.1590  -18.1370   40.9530 H   0  0  0  0  0  0  0  0  0  0  0  0
  -16.2560  -17.8170   41.5300 H   0  0  0  0  0  0  0  0  0  0  0  0
   -7.4630  -18.1320   38.8710 C   0  0  0  0  0  0  0  0  0  0  0  0
   -7.4770  -16.6420   38.6970 C   0  0  0  0  0  0  0  0  0  0  0  0
   -8.4440  -16.0070   37.7420 C   0  0  0  0  0  0  0  0  0  0  0  0
   -9.3980  -16.8620   36.9620 C   0  0  0  0  0  0  0  0  0  0  0  0
   -9.3840  -18.3520   37.1360 N   0  0  0  0  0  0  0  0  0  0  0  0
   -8.4170  -18.9870   38.0900 C   0  0  0  0  0  0  0  0  0  0  0  0
   -6.7980  -18.5680   39.5270 H   0  0  0  0  0  0  0  0  0  0  0  0
   -6.8210  -16.0540   39.2340 H   0  0  0  0  0  0  0  0  0  0  0  0
   -8.4530  -14.9820   37.6230 H   0  0  0  0  0  0  0  0  0  0  0  0
   -8.4080  -20.0110   38.2090 H   0  0  0  0  0  0  0  0  0  0  0  0
  1  5  2  0
  1 32  1  0
  2  1  1  0
  3  2  2  0
  3  4  1  0
  4  5  1  0
  5 15  1  0
  6  9  1  0
  6  4  1  0
 10  6  1  0
 11  7  1  0
 12  7  1  0
 13  8  1  0
 14  8  1  0
 15 16  1  0
 16 24  1  0
 16 17  2  0
 17 25  1  0
 18 17  1  0
 19 21  1  0
 19 18  2  0
 20 15  2  0
 20 19  1  0
 21 22  1  0
 22 27  1  0
 22 28  1  0
 26 20  1  0
 29 35  1  0
 30 29  1  0
 30 36  1  0
 31 30  2  0
 32 33  2  0
 32 31  1  0
 33 34  1  0
 34 38  1  0
 34 29  2  0
 37 31  1  0
M  END
>  <minimizedAffinity>  (201) 
-8.76264954

$$$$

     RDKit          3D

 42 44  0  0  0  0  0  0  0  0999 V2000
  -17.1650  -16.9430   38.9940 C   0  0  0  0  0  0  0  0  0  0  0  0
  -16.4770  -16.5300   37.7260 C   0  0  0  0  0  0  0  0  0  0  0  0
  -15.2550  -15.6630   37.7850 C   0  0  0  0  0  0  0  0  0  0  0  0
  -14.7200  -15.2090   39.1110 C   0  0  0  0  0  0  0  0  0  0  0  0
  -15.4080  -15.6220   40.3780 C   0  0  0  0  0  0  0  0  0  0  0  0
  -16.6310  -16.4890   40.3200 C   0  0  0  0  0  0  0  0  0  0  0  0
  -16.8450  -16.8430   36.8140 H   0  0  0  0  0  0  0  0  0  0  0  0
  -13.8790  -14.6120   39.1510 H   0  0  0  0  0  0  0  0  0  0  0  0
  -14.5670  -15.2500   36.5180 N   0  0  0  0  0  0  0  0  0  0  0  0
  -13.1030  -15.5240   36.3350 C   0  0  0  0  0  0  0  0  0  0  0  0
  -12.2840  -15.1710   35.1290 N   0  0  0  0  0  0  0  0  0  0  0  0
  -10.8770  -15.6280   35.3760 C   0  0  0  0  0  0  0  0  0  0  0  0
  -10.8260  -16.2630   36.7340 C   0  0  0  0  0  0  0  0  0  0  0  0
  -12.2020  -16.1990   37.3260 O   0  0  0  0  0  0  0  0  0  0  0  0
  -15.0760  -14.7990   35.8050 H   0  0  0  0  0  0  0  0  0  0  0  0
  -10.0830  -15.5240   34.7240 H   0  0  0  0  0  0  0  0  0  0  0  0
   -9.6120  -16.8580   37.3840 C   0  0  0  0  0  0  0  0  0  0  0  0
   -9.4430  -18.3470   37.4360 C   0  0  0  0  0  0  0  0  0  0  0  0
   -8.2290  -18.9420   38.0870 C   0  0  0  0  0  0  0  0  0  0  0  0
   -7.1850  -18.0480   38.6860 C   0  0  0  0  0  0  0  0  0  0  0  0
   -7.3540  -16.5580   38.6340 C   0  0  0  0  0  0  0  0  0  0  0  0
   -8.5680  -15.9630   37.9830 C   0  0  0  0  0  0  0  0  0  0  0  0
  -10.1620  -18.9630   37.0240 H   0  0  0  0  0  0  0  0  0  0  0  0
   -8.1130  -19.9670   38.1220 H   0  0  0  0  0  0  0  0  0  0  0  0
   -6.3500  -18.4570   39.1330 H   0  0  0  0  0  0  0  0  0  0  0  0
   -6.6360  -15.9420   39.0460 H   0  0  0  0  0  0  0  0  0  0  0  0
   -8.6850  -14.9380   37.9480 H   0  0  0  0  0  0  0  0  0  0  0  0
  -18.3880  -17.8110   38.9350 O   0  0  0  0  0  0  0  0  0  0  0  0
  -19.7210  -17.2560   39.3420 C   0  0  0  0  0  0  0  0  0  0  0  0
  -19.8000  -16.2420   39.6750 H   0  0  0  0  0  0  0  0  0  0  0  0
  -20.5930  -17.8750   39.3000 H   0  0  0  0  0  0  0  0  0  0  0  0
  -20.6720  -16.8610   39.6330 H   0  0  0  0  0  0  0  0  0  0  0  0
  -14.8740  -15.1680   41.7040 O   0  0  0  0  0  0  0  0  0  0  0  0
  -13.5440  -14.4780   41.7800 C   0  0  0  0  0  0  0  0  0  0  0  0
  -12.9770  -14.3100   40.8890 H   0  0  0  0  0  0  0  0  0  0  0  0
  -13.1630  -14.1540   42.7260 H   0  0  0  0  0  0  0  0  0  0  0  0
  -12.5950  -13.9860   41.8350 H   0  0  0  0  0  0  0  0  0  0  0  0
  -17.3190  -16.9020   41.5870 O   0  0  0  0  0  0  0  0  0  0  0  0
  -17.3520  -18.3480   41.9860 C   0  0  0  0  0  0  0  0  0  0  0  0
  -16.8840  -19.0840   41.3660 H   0  0  0  0  0  0  0  0  0  0  0  0
  -17.8430  -18.6420   42.8900 H   0  0  0  0  0  0  0  0  0  0  0  0
  -17.3750  -19.3790   42.2700 H   0  0  0  0  0  0  0  0  0  0  0  0
  1  6  1  0
  2  3  1  0
  2  1  2  0
  3  4  2  0
  4  8  1  0
  4  5  1  0
  5 33  1  0
  6  5  2  0
  6 38  1  0
  7  2  1  0
  9  3  1  0
 10  9  1  0
 10 14  1  0
 11 12  1  0
 11 10  2  0
 12 13  2  0
 13 14  1  0
 13 17  1  0
 15  9  1  0
 16 12  1  0
 17 18  2  0
 17 22  1  0
 18 19  1  0
 19 24  1  0
 19 20  2  0
 20 25  1  0
 21 20  1  0
 21 26  1  0
 22 21  2  0
 23 18  1  0
 27 22  1  0
 28  1  1  0
 28 29  1  0
 29 32  1  0
 29 30  1  0
 31 29  1  0
 33 34  1  0
 34 37  1  0
 34 36  1  0
 35 34  1  0
 38 39  1  0
 39 42  1  0
 39 41  1  0
 40 39  1  0
M  END
>  <minimizedAffinity>  (202) 
-7.72224808

$$$$

     RDKit          3D

 53 56  0  0  0  0  0  0  0  0999 V2000
  -15.1020  -15.9350   36.9490 C   0  0  0  0  0  0  0  0  0  0  0  0
  -13.7430  -15.9700   36.3160 C   0  0  0  0  0  0  0  0  0  0  0  0
  -13.5060  -15.2730   35.0090 C   0  0  0  0  0  3  0  0  0  0  0  0
  -14.6290  -14.5410   34.3360 N   0  0  0  0  0  0  0  0  0  0  0  0
  -15.9880  -14.5060   34.9690 C   0  0  0  0  0  0  0  0  0  0  0  0
  -17.1100  -13.7730   34.2960 N   0  0  0  0  0  0  0  0  0  0  0  0
  -16.2250  -15.2030   36.2760 N   0  0  0  0  0  2  0  0  0  0  0  0
  -12.9700  -16.4740   36.7790 H   0  0  0  0  0  0  0  0  0  0  0  0
  -12.5710  -15.2980   34.5730 H   0  0  0  0  0  0  0  0  0  0  0  0
  -18.0020  -13.7500   34.7110 H   0  0  0  0  0  0  0  0  0  0  0  0
  -16.8740  -13.0760   32.9890 C   0  0  0  0  0  0  0  0  0  0  0  0
  -15.7510  -12.0900   32.8570 C   0  0  0  0  0  0  0  0  0  0  0  0
  -15.5140  -11.3930   31.5500 C   0  0  0  0  0  0  0  0  0  0  0  0
  -16.4000  -11.6820   30.3750 C   0  0  0  0  0  0  0  0  0  0  0  0
  -17.5230  -12.6670   30.5070 C   0  0  0  0  0  0  0  0  0  0  0  0
  -17.7600  -13.3640   31.8140 C   0  0  0  0  0  0  0  0  0  0  0  0
  -18.4090  -12.9560   29.3310 O   0  0  0  0  0  0  0  0  0  0  0  0
  -18.1730  -12.2580   28.0250 C   0  0  0  0  0  3  0  0  0  0  0  0
  -17.0500  -11.2730   27.8930 C   0  0  0  0  0  2  0  0  0  0  0  0
  -16.1630  -10.9840   29.0680 O   0  0  0  0  0  1  0  0  0  0  0  0
  -15.1410  -11.8920   33.6660 H   0  0  0  0  0  0  0  0  0  0  0  0
  -14.7410  -10.7150   31.4600 H   0  0  0  0  0  0  0  0  0  0  0  0
  -18.5330  -14.0430   31.9040 H   0  0  0  0  0  0  0  0  0  0  0  0
  -18.8050  -12.4640   27.1860 H   0  0  0  0  0  0  0  0  0  0  0  0
  -18.0040  -11.7610   27.0920 H   0  0  0  0  0  0  0  0  0  0  0  0
  -16.8810  -10.7760   26.9610 H   0  0  0  0  0  0  0  0  0  0  0  0
  -16.2480  -10.5700   27.7990 H   0  0  0  0  0  0  0  0  0  0  0  0
  -14.2800  -17.1170   39.2020 C   0  0  0  0  0  0  0  0  0  0  0  0
  -14.9630  -17.7510   40.3770 N   0  0  0  0  0  0  0  0  0  0  0  0
  -16.4440  -17.6590   40.1580 N   0  0  0  0  0  0  0  0  0  0  0  0
  -17.6110  -18.1150   40.9820 N   0  0  0  0  0  0  0  0  0  0  0  0
  -19.0100  -17.8800   40.4960 C   0  0  0  0  0  0  0  0  0  0  0  0
  -19.2430  -17.1880   39.1850 C   0  0  0  0  0  0  0  0  0  0  0  0
  -18.0760  -16.7320   38.3610 C   0  0  0  0  0  0  0  0  0  0  0  0
  -16.6770  -16.9680   38.8480 C   0  0  0  0  0  0  0  0  0  0  0  0
  -15.3390  -16.6320   38.2560 C   0  0  0  0  0  0  0  0  0  0  0  0
  -19.8130  -18.1940   41.0640 H   0  0  0  0  0  0  0  0  0  0  0  0
  -20.2060  -17.0270   38.8520 H   0  0  0  0  0  0  0  0  0  0  0  0
  -18.2360  -16.2560   37.4590 H   0  0  0  0  0  0  0  0  0  0  0  0
   -9.8350  -16.7330   38.6150 C   0  0  0  0  0  0  0  0  0  0  0  0
  -10.6390  -17.6140   37.7040 C   0  0  0  0  0  0  0  0  0  0  0  0
  -12.1200  -17.7410   37.9000 C   0  0  0  0  0  0  0  0  0  0  0  0
  -12.7980  -16.9890   39.0060 C   0  0  0  0  0  0  0  0  0  0  0  0
  -11.9950  -16.1080   39.9170 C   0  0  0  0  0  0  0  0  0  0  0  0
  -10.5130  -15.9800   39.7210 C   0  0  0  0  0  0  0  0  0  0  0  0
  -10.1720  -18.1310   36.9440 H   0  0  0  0  0  0  0  0  0  0  0  0
  -12.6720  -18.3470   37.2730 H   0  0  0  0  0  0  0  0  0  0  0  0
  -12.4620  -15.5910   40.6780 H   0  0  0  0  0  0  0  0  0  0  0  0
   -9.9610  -15.3740   40.3480 H   0  0  0  0  0  0  0  0  0  0  0  0
   -6.8720  -16.4770   38.2260 F   0  0  0  0  0  0  0  0  0  0  0  0
   -8.3530  -16.6040   38.4200 C   0  0  0  0  0  0  0  0  0  0  0  0
   -8.5770  -15.4750   37.4600 F   0  0  0  0  0  0  0  0  0  0  0  0
   -8.1300  -17.7350   39.3810 F   0  0  0  0  0  0  0  0  0  0  0  0
  1 36  1  0
  2  8  1  0
  2  1  2  0
  3  2  1  0
  4  5  2  0
  4  3  1  0
  5  7  1  0
  6 10  1  0
  6  5  1  0
  7  1  1  0
  9  3  1  0
 11  6  1  0
 12 11  1  0
 12 21  1  0
 13 12  2  0
 14 15  2  0
 14 13  1  0
 15 16  1  0
 16 23  1  0
 16 11  2  0
 17 15  1  0
 18 17  1  0
 20 14  1  0
 22 13  1  0
 24 18  1  0
 25 18  1  0
 26 19  1  0
 27 19  1  0
 28 29  2  0
 30 29  1  0
 30 31  1  0
 32 31  2  0
 32 37  1  0
 33 32  1  0
 34 35  1  0
 34 33  2  0
 35 30  1  0
 36 35  2  0
 36 28  1  0
 38 33  1  0
 39 34  1  0
 40 45  1  0
 41 42  1  0
 41 40  2  0
 42 43  2  0
 43 28  1  0
 43 44  1  0
 44 48  1  0
 45 44  2  0
 45 49  1  0
 46 41  1  0
 47 42  1  0
 50 51  1  0
 51 40  1  0
 51 53  1  0
 52 51  1  0
M  END
>  <minimizedAffinity>  (203) 
-10.1720533

$$$$

     RDKit          3D

 60 64  0  0  0  0  0  0  0  0999 V2000
  -15.1980  -15.3180   35.9760 C   0  0  0  0  0  0  0  0  0  0  0  0
  -16.5250  -15.2680   36.6740 C   0  0  0  0  0  0  0  0  0  0  0  0
  -17.5070  -14.6030   35.7560 N   0  0  0  0  0  0  0  0  0  0  0  0
  -16.7870  -14.2420   34.4910 C   0  0  0  0  0  0  0  0  0  0  0  0
  -15.3610  -14.6840   34.6260 N   0  0  0  0  0  0  0  0  0  0  0  0
   -8.8090  -17.2730   37.5920 C   0  0  0  0  0  0  0  0  0  0  0  0
   -8.7530  -16.3170   36.4380 C   0  0  0  0  0  0  0  0  0  0  0  0
  -10.0200  -15.7350   35.8840 C   0  0  0  0  0  0  0  0  0  0  0  0
  -11.3420  -16.1090   36.4840 C   0  0  0  0  0  0  0  0  0  0  0  0
  -12.6090  -15.5260   35.9300 C   0  0  0  0  0  0  0  0  0  0  0  0
  -13.9320  -15.9000   36.5300 C   0  0  0  0  0  0  0  0  0  0  0  0
  -13.9880  -16.8560   37.6850 C   0  0  0  0  0  0  0  0  0  0  0  0
  -12.7210  -17.4380   38.2390 C   0  0  0  0  0  0  0  0  0  0  0  0
  -11.3990  -17.0650   37.6390 C   0  0  0  0  0  0  0  0  0  0  0  0
  -10.1320  -17.6470   38.1930 C   0  0  0  0  0  0  0  0  0  0  0  0
   -7.8430  -16.0590   36.0240 H   0  0  0  0  0  0  0  0  0  0  0  0
   -9.9810  -15.0770   35.0890 H   0  0  0  0  0  0  0  0  0  0  0  0
  -12.5700  -14.8690   35.1350 H   0  0  0  0  0  0  0  0  0  0  0  0
  -14.8980  -17.1140   38.0980 H   0  0  0  0  0  0  0  0  0  0  0  0
  -12.7600  -18.0960   39.0330 H   0  0  0  0  0  0  0  0  0  0  0  0
  -10.1710  -18.3040   38.9870 H   0  0  0  0  0  0  0  0  0  0  0  0
   -7.5430  -17.8550   38.1460 O   0  0  0  0  0  0  0  0  0  0  0  0
   -7.5220  -19.2700   38.6420 C   0  0  0  0  0  0  0  0  0  0  0  0
   -8.4110  -19.8650   38.6010 H   0  0  0  0  0  0  0  0  0  0  0  0
   -6.6190  -19.6850   39.0380 H   0  0  0  0  0  0  0  0  0  0  0  0
   -7.5070  -20.2800   38.9960 H   0  0  0  0  0  0  0  0  0  0  0  0
  -16.8180  -15.7920   38.0490 C   0  0  0  0  0  0  0  0  0  0  0  0
  -16.3480  -15.0340   39.2560 C   0  0  0  0  0  0  0  0  0  0  0  0
  -16.6410  -15.5580   40.6300 C   0  0  0  0  0  0  0  0  0  0  0  0
  -17.4030  -16.8390   40.7990 N   0  0  0  0  0  0  0  0  0  0  0  0
  -17.8730  -17.5960   39.5920 C   0  0  0  0  0  0  0  0  0  0  0  0
  -17.5800  -17.0730   38.2180 C   0  0  0  0  0  0  0  0  0  0  0  0
  -15.8240  -14.1540   39.1390 H   0  0  0  0  0  0  0  0  0  0  0  0
  -16.3170  -15.0370   41.4600 H   0  0  0  0  0  0  0  0  0  0  0  0
  -18.3970  -18.4770   39.7090 H   0  0  0  0  0  0  0  0  0  0  0  0
  -17.9040  -17.5940   37.3880 H   0  0  0  0  0  0  0  0  0  0  0  0
  -17.3890  -13.5590   33.2980 C   0  0  0  0  0  0  0  0  0  0  0  0
  -16.7060  -12.3690   32.6920 C   0  0  0  0  0  0  0  0  0  0  0  0
  -17.3080  -11.6860   31.5000 C   0  0  0  0  0  0  0  0  0  0  0  0
  -18.5930  -12.1920   30.9140 C   0  0  0  0  0  0  0  0  0  0  0  0
  -19.2760  -13.3820   31.5210 C   0  0  0  0  0  0  0  0  0  0  0  0
  -18.6740  -14.0650   32.7130 C   0  0  0  0  0  0  0  0  0  0  0  0
  -15.8220  -12.0210   33.0950 H   0  0  0  0  0  0  0  0  0  0  0  0
  -16.8380  -10.8670   31.0820 H   0  0  0  0  0  0  0  0  0  0  0  0
  -20.1590  -13.7300   31.1180 H   0  0  0  0  0  0  0  0  0  0  0  0
  -19.3570  -15.2550   33.3190 C   0  0  0  0  0  0  0  0  0  0  0  0
  -20.2730  -15.6160   32.9020 H   0  0  0  0  0  0  0  0  0  0  0  0
  -18.9270  -15.7430   34.1700 H   0  0  0  0  0  0  0  0  0  0  0  0
  -19.8440  -16.1040   33.7520 H   0  0  0  0  0  0  0  0  0  0  0  0
  -19.1940  -11.5090   29.7220 S   0  0  1  0  0  0  0  0  0  0  0  0
  -18.7300  -10.1830   30.2500 O   0  0  0  0  0  0  0  0  0  0  0  0
  -19.6570  -12.8340   29.1950 O   0  0  0  0  0  0  0  0  0  0  0  0
  -19.7950  -10.8240   28.5310 C   0  0  0  0  0  0  0  0  0  0  0  0
  -20.2960  -11.4000   27.7790 H   0  0  0  0  0  0  0  0  0  0  0  0
  -19.7230   -9.7620   28.4310 H   0  0  0  0  0  0  0  0  0  0  0  0
  -20.2230  -10.3360   27.6800 H   0  0  0  0  0  0  0  0  0  0  0  0
  -14.2850  -14.5200   33.5940 C   0  0  0  0  0  0  0  0  0  0  0  0
  -13.2940  -14.8720   33.7930 H   0  0  0  0  0  0  0  0  0  0  0  0
  -14.5080  -14.0510   32.6590 H   0  0  0  0  0  0  0  0  0  0  0  0
  -13.5180  -14.4030   32.8580 H   0  0  0  0  0  0  0  0  0  0  0  0
  1 11  1  0
  1  2  2  0
  2 27  1  0
  3  2  1  0
  4  5  1  0
  4  3  2  0
  5  1  1  0
  6 22  1  0
  6 15  1  0
  7  6  2  0
  8  7  1  0
  8  9  2  0
  9 14  1  0
 10  9  1  0
 10 11  2  0
 11 12  1  0
 12 19  1  0
 12 13  2  0
 13 20  1  0
 14 15  2  0
 14 13  1  0
 15 21  1  0
 16  7  1  0
 17  8  1  0
 18 10  1  0
 22 23  1  0
 23 26  1  0
 23 25  1  0
 24 23  1  0
 27 32  2  0
 27 28  1  0
 28 29  2  0
 29 30  1  0
 29 34  1  0
 31 35  1  0
 31 30  2  0
 32 31  1  0
 33 28  1  0
 36 32  1  0
 37  4  1  0
 38 43  1  0
 38 37  2  0
 39 38  1  0
 40 39  2  0
 40 41  1  0
 41 42  2  0
 42 37  1  0
 42 46  1  0
 44 39  1  0
 45 41  1  0
 46 49  1  0
 46 48  1  0
 47 46  1  0
 50 51  2  0
 50 40  1  0
 52 50  2  0
 53 50  1  0
 54 53  1  0
 55 53  1  0
 56 53  1  0
 57 58  1  0
 57  5  1  0
 59 57  1  0
 60 57  1  0
M  END
>  <minimizedAffinity>  (204) 
-9.19649506

$$$$

     RDKit          3D

 64 67  0  0  1  0  0  0  0  0999 V2000
  -15.5660  -13.3080   32.7950 C   0  0  0  0  0  0  0  0  0  0  0  0
  -17.0660  -13.2820   32.7810 C   0  0  0  0  0  0  0  0  0  0  0  0
  -17.8390  -14.0400   33.8190 C   0  0  0  0  0  0  0  0  0  0  0  0
  -17.1130  -14.8250   34.8710 C   0  0  0  0  0  0  0  0  0  0  0  0
  -15.6130  -14.8510   34.8850 C   0  0  0  0  0  0  0  0  0  0  0  0
  -14.8400  -14.0930   33.8470 C   0  0  0  0  0  0  0  0  0  0  0  0
  -17.5650  -12.7420   32.0570 H   0  0  0  0  0  0  0  0  0  0  0  0
  -15.1140  -15.3910   35.6090 H   0  0  0  0  0  0  0  0  0  0  0  0
  -13.3400  -14.1190   33.8620 N   0  0  0  0  0  0  0  0  0  0  0  0
  -12.6140  -14.9520   34.8760 C   0  0  0  0  0  0  0  0  0  0  0  0
  -13.3870  -15.7590   35.8760 N   0  0  0  0  0  0  0  0  0  0  0  0
  -12.6620  -16.5930   36.8900 C   0  0  0  0  0  3  0  0  0  0  0  0
  -11.1630  -16.6190   36.9040 C   0  0  0  0  0  0  0  0  0  0  0  0
  -10.1800  -17.3400   37.7780 C   0  0  0  0  0  0  0  0  0  0  0  0
   -8.7980  -16.9790   37.3180 C   0  0  0  0  0  0  0  0  0  0  0  0
   -8.9270  -16.0340   36.1610 N   0  0  0  0  0  0  0  0  0  0  0  0
  -10.3890  -15.8120   35.9050 C   0  0  0  0  0  0  0  0  0  0  0  0
  -11.1150  -14.9780   34.8900 N   0  0  0  0  0  2  0  0  0  0  0  0
  -12.8320  -13.5890   33.2060 H   0  0  0  0  0  0  0  0  0  0  0  0
  -10.4130  -17.9740   38.5590 H   0  0  0  0  0  0  0  0  0  0  0  0
   -7.9140  -17.3200   37.7270 H   0  0  0  0  0  0  0  0  0  0  0  0
   -8.1830  -15.6310   35.6570 H   0  0  0  0  0  0  0  0  0  0  0  0
  -13.4360  -17.4000   37.8900 N   0  0  0  0  0  0  0  0  0  0  0  0
  -13.7640  -18.2960   37.6510 H   0  0  0  0  0  0  0  0  0  0  0  0
  -13.7090  -16.8400   39.2560 C   0  0  0  0  0  0  0  0  0  0  0  0
  -12.5880  -16.2550   40.0630 C   0  0  0  0  0  0  0  0  0  0  0  0
  -12.8610  -15.6960   41.4280 C   0  0  0  0  0  0  0  0  0  0  0  0
  -14.2530  -15.7220   41.9850 C   0  0  0  0  0  0  0  0  0  0  0  0
  -15.3730  -16.3080   41.1770 C   0  0  0  0  0  0  0  0  0  0  0  0
  -16.7660  -16.3340   41.7340 F   0  0  0  0  0  0  0  0  0  0  0  0
  -15.1010  -16.8670   39.8120 C   0  0  0  0  0  0  0  0  0  0  0  0
  -11.6300  -16.2370   39.6800 H   0  0  0  0  0  0  0  0  0  0  0  0
  -12.0910  -15.2920   41.9840 H   0  0  0  0  0  0  0  0  0  0  0  0
  -14.4410  -15.3370   42.9240 H   0  0  0  0  0  0  0  0  0  0  0  0
  -16.2210  -17.4530   39.0040 C   0  0  0  0  0  0  0  0  0  0  0  0
  -17.3190  -18.2130   39.6860 N   0  0  0  0  0  0  0  0  0  0  0  0
  -16.2420  -17.2790   37.5140 O   0  0  0  0  0  0  0  0  0  0  0  0
  -18.0540  -18.5980   39.1560 H   0  0  0  0  0  0  0  0  0  0  0  0
  -17.3050  -18.3280   40.6640 H   0  0  0  0  0  0  0  0  0  0  0  0
  -19.3390  -14.0140   33.8040 C   0  0  0  0  0  0  0  0  0  0  0  0
  -19.8900  -14.5550   34.5440 H   0  0  0  0  0  0  0  0  0  0  0  0
  -19.8560  -13.4540   33.0530 H   0  0  0  0  0  0  0  0  0  0  0  0
  -20.4080  -13.9950   33.7940 H   0  0  0  0  0  0  0  0  0  0  0  0
  -17.8860  -15.5830   35.9080 N   0  0  0  0  0  0  0  0  0  0  0  0
  -18.6540  -14.8420   36.9610 C   0  0  0  0  0  0  0  0  0  0  0  0
  -18.6500  -13.3410   36.9770 O   0  0  0  0  0  0  0  0  0  0  0  0
  -17.8890  -16.5680   35.8980 H   0  0  0  0  0  0  0  0  0  0  0  0
  -19.4280  -15.5990   37.9990 C   0  0  0  0  0  0  0  0  0  0  0  0
  -20.1690  -16.3120   37.7000 H   0  0  0  0  0  0  0  0  0  0  0  0
  -19.9800  -16.1400   38.7400 H   0  0  0  0  0  0  0  0  0  0  0  0
  -19.1630  -15.3590   39.4560 N   0  0  0  0  0  0  0  0  0  0  0  0
  -19.7940  -16.2450   40.4890 C   0  0  0  0  0  0  0  0  0  0  0  0
  -20.4330  -17.0480   40.1870 H   0  0  0  0  0  0  0  0  0  0  0  0
  -19.6060  -16.0740   41.5280 H   0  0  0  0  0  0  0  0  0  0  0  0
  -20.2450  -16.8780   41.2260 H   0  0  0  0  0  0  0  0  0  0  0  0
  -18.2680  -14.2330   39.8800 C   0  0  0  0  0  0  0  0  0  0  0  0
  -18.0790  -14.0620   40.9190 H   0  0  0  0  0  0  0  0  0  0  0  0
  -17.8180  -13.6010   39.1430 H   0  0  0  0  0  0  0  0  0  0  0  0
  -17.6290  -13.4300   40.1830 H   0  0  0  0  0  0  0  0  0  0  0  0
  -14.7930  -12.5500   31.7580 O   0  0  0  0  0  0  0  0  0  0  0  0
  -15.4240  -11.3850   31.0540 C   0  0  0  0  0  0  0  0  0  0  0  0
  -16.4250  -11.0950   31.2920 H   0  0  0  0  0  0  0  0  0  0  0  0
  -14.8720  -10.8440   30.3140 H   0  0  0  0  0  0  0  0  0  0  0  0
  -15.8740  -10.5540   30.5530 H   0  0  0  0  0  0  0  0  0  0  0  0
  1  6  1  0
  2  1  2  0
  2  3  1  0
  3  4  2  0
  4  5  1  0
  4 44  1  0
  5  8  1  0
  6  9  1  0
  6  5  2  0
  7  2  1  0
  9 10  1  0
 10 18  1  0
 10 11  2  0
 11 12  1  0
 12 13  1  0
 12 23  1  0
 13 14  1  0
 14 20  1  0
 15 21  1  0
 15 14  2  0
 16 15  1  0
 17 16  1  0
 17 13  2  0
 18 17  1  0
 19  9  1  0
 22 16  1  0
 23 25  1  0
 24 23  1  0
 25 31  2  0
 25 26  1  0
 26 27  2  0
 27 33  1  0
 27 28  1  0
 28 34  1  0
 29 30  1  0
 29 28  2  0
 31 29  1  0
 32 26  1  0
 35 36  1  0
 35 31  1  0
 36 39  1  0
 37 35  2  0
 38 36  1  0
 40  3  1  0
 40 41  1  0
 42 40  1  0
 43 40  1  0
 44 45  1  0
 45 46  2  0
 45 48  1  0
 47 44  1  0
 48 50  1  0
 48 51  1  0
 49 48  1  0
 51 56  1  0
 51 52  1  0
 52 55  1  0
 52 54  1  0
 53 52  1  0
 56 59  1  0
 56 57  1  0
 58 56  1  0
 60  1  1  0
 61 62  1  0
 61 60  1  0
 63 61  1  0
 64 61  1  0
M  END
>  <minimizedAffinity>  (205) 
-9.59099007

$$$$

     RDKit          3D

 51 50  0  0  0  0  0  0  0  0999 V2000
  -16.8730  -16.4640   38.6180 C   0  0  0  0  0  3  0  0  0  0  0  0
  -16.2640  -15.5320   39.6230 C   0  0  0  0  0  0  0  0  0  0  0  0
  -14.8230  -15.6850   40.0120 C   0  0  0  0  0  0  0  0  0  0  0  0
  -13.9920  -16.7710   39.3960 C   0  0  0  0  0  0  0  0  0  0  0  0
  -14.6020  -17.7040   38.3910 C   0  0  0  0  0  0  0  0  0  0  0  0
  -16.0420  -17.5500   38.0030 C   0  0  0  0  0  0  0  0  0  0  0  0
  -16.8360  -14.7840   40.0460 H   0  0  0  0  0  0  0  0  0  0  0  0
  -14.4040  -15.0430   40.7020 H   0  0  0  0  0  0  0  0  0  0  0  0
  -14.0300  -18.4510   37.9680 H   0  0  0  0  0  0  0  0  0  0  0  0
  -16.4610  -18.1920   37.3120 H   0  0  0  0  0  0  0  0  0  0  0  0
  -12.5520  -16.9250   39.7850 N   0  0  0  0  0  0  0  0  0  0  0  0
  -11.4710  -16.6540   38.7800 C   0  0  0  0  0  0  0  0  0  0  0  0
  -10.0300  -16.8070   39.1680 N   0  0  0  0  0  0  0  0  0  0  0  0
   -8.9490  -16.5370   38.1650 C   0  0  0  0  0  0  0  0  0  0  0  0
   -9.3100  -16.1120   36.7710 C   0  0  0  0  0  0  0  0  0  0  0  0
  -10.7500  -15.9580   36.3830 C   0  0  0  0  0  0  0  0  0  0  0  0
  -11.8300  -16.2290   37.3880 N   0  0  0  0  0  0  0  0  0  0  0  0
  -12.3140  -17.2030   40.6980 H   0  0  0  0  0  0  0  0  0  0  0  0
   -7.9590  -16.6420   38.4310 H   0  0  0  0  0  0  0  0  0  0  0  0
   -8.5660  -15.9260   36.0800 H   0  0  0  0  0  0  0  0  0  0  0  0
  -11.1100  -15.5340   34.9900 C   0  0  0  0  0  0  0  0  0  0  0  0
  -10.2390  -15.6630   33.7760 C   0  0  0  0  0  0  0  0  0  0  0  0
  -10.9950  -15.1140   32.6020 N   0  0  0  0  0  0  0  0  0  0  0  0
  -12.3340  -14.6460   33.0910 N   0  0  0  0  0  0  0  0  0  0  0  0
  -13.4970  -14.0180   32.3830 N   0  0  0  0  0  0  0  0  0  0  0  0
  -14.7320  -13.6480   33.1510 C   0  0  0  0  0  0  0  0  0  0  0  0
  -14.8030  -13.9080   34.6260 C   0  0  0  0  0  0  0  0  0  0  0  0
  -13.6400  -14.5360   35.3340 C   0  0  0  0  0  0  0  0  0  0  0  0
  -12.4050  -14.9060   34.5670 C   0  0  0  0  0  0  0  0  0  0  0  0
   -9.2870  -16.0590   33.7520 H   0  0  0  0  0  0  0  0  0  0  0  0
  -15.5320  -13.2160   32.6630 H   0  0  0  0  0  0  0  0  0  0  0  0
  -15.6530  -13.6530   35.1540 H   0  0  0  0  0  0  0  0  0  0  0  0
  -13.6890  -14.7150   36.3500 H   0  0  0  0  0  0  0  0  0  0  0  0
  -18.3140  -16.3110   38.2290 C   0  0  0  0  0  2  0  0  0  0  0  0
  -19.0360  -17.0280   38.5590 H   0  0  0  0  0  0  0  0  0  0  0  0
  -18.0080  -17.1370   38.8360 H   0  0  0  0  0  0  0  0  0  0  0  0
  -18.7410  -15.1510   37.3790 N   0  0  0  0  0 15  0  0  0  0  0  0
  -18.2680  -15.0480   35.9600 C   0  0  0  0  0  3  0  0  0  0  0  0
  -17.2410  -14.8320   35.7520 H   0  0  0  0  0  0  0  0  0  0  0  0
  -17.5780  -14.9050   36.7650 H   0  0  0  0  0  0  0  0  0  0  0  0
  -19.2350  -15.2480   34.8300 C   0  0  0  0  0  0  0  0  0  0  0  0
  -20.2620  -15.4650   35.0370 H   0  0  0  0  0  0  0  0  0  0  0  0
  -18.8970  -15.1740   33.8170 H   0  0  0  0  0  0  0  0  0  0  0  0
  -19.9240  -15.3910   34.0240 H   0  0  0  0  0  0  0  0  0  0  0  0
  -19.6420  -14.0940   37.9480 C   0  0  0  0  0  3  0  0  0  0  0  0
  -20.6980  -14.1510   37.7900 H   0  0  0  0  0  0  0  0  0  0  0  0
  -20.2840  -13.3410   38.3540 H   0  0  0  0  0  0  0  0  0  0  0  0
  -19.0600  -12.9600   38.7380 C   0  0  0  0  0  0  0  0  0  0  0  0
  -19.7020  -12.2070   39.1440 H   0  0  0  0  0  0  0  0  0  0  0  0
  -18.0030  -12.9040   38.8970 H   0  0  0  0  0  0  0  0  0  0  0  0
  -18.6450  -12.1510   39.3020 H   0  0  0  0  0  0  0  0  0  0  0  0
  1  2  1  0
  2  3  2  0
  2  7  1  0
  3  8  1  0
  4 11  1  0
  4  3  1  0
  5  4  2  0
  6  5  1  0
  6  1  2  0
  9  5  1  0
 10  6  1  0
 11 18  1  0
 12 13  2  0
 12 11  1  0
 14 19  1  0
 14 13  1  0
 15 14  2  0
 16 15  1  0
 16 17  2  0
 17 12  1  0
 20 15  1  0
 21 16  1  0
 22 21  1  0
 23 24  1  0
 23 22  2  0
 24 29  1  0
 25 24  1  0
 25 26  2  0
 26 27  1  0
 27 32  1  0
 27 28  2  0
 28 33  1  0
 29 21  2  0
 29 28  1  0
 30 22  1  0
 31 26  1  0
 34 35  1  0
 34 36  1  0
 38 40  1  0
 39 38  1  0
 41 42  1  0
 41 38  1  0
 43 41  1  0
 44 41  1  0
 45 47  1  0
 45 48  1  0
 46 45  1  0
 48 50  1  0
 48 49  1  0
 48 51  1  0
M  END
>  <minimizedAffinity>  (206) 
-10.2657843

$$$$

     RDKit          3D

 61 58  0  0  0  0  0  0  0  0999 V2000
  -16.7250  -14.8490   35.0770 C   0  0  0  0  0  0  0  0  0  0  0  0
  -15.2650  -15.1930   35.0950 C   0  0  0  0  0  0  0  0  0  0  0  0
  -14.9270  -15.7090   36.4620 C   0  0  0  0  0  0  0  0  0  0  0  0
  -16.1790  -15.6840   37.2890 C   0  0  0  0  0  0  0  0  0  0  0  0
  -17.2890  -15.1520   36.4330 O   0  0  0  0  0  0  0  0  0  0  0  0
  -14.6080  -15.0920   34.3050 H   0  0  0  0  0  0  0  0  0  0  0  0
  -13.5760  -16.1700   36.9220 C   0  0  0  0  0  0  0  0  0  0  0  0
  -13.4540  -17.0490   38.1300 C   0  0  0  0  0  0  0  0  0  0  0  0
  -12.1030  -17.5100   38.5900 C   0  0  0  0  0  0  0  0  0  0  0  0
  -10.8730  -17.0910   37.8410 C   0  0  0  0  0  3  0  0  0  0  0  0
  -10.9940  -16.2110   36.6320 C   0  0  0  0  0  0  0  0  0  0  0  0
  -12.3460  -15.7500   36.1720 C   0  0  0  0  0  0  0  0  0  0  0  0
   -9.6140  -15.9620   36.1000 C   0  0  0  0  0  3  0  0  0  0  0  0
   -8.6400  -16.6880   36.9800 C   0  0  0  0  0  2  0  0  0  0  0  0
   -9.4170  -17.3850   38.0560 C   0  0  0  0  0 15  0  0  0  0  0  0
   -8.8410  -18.2290   39.1530 N   0  0  0  0  0  1  0  0  0  0  0  0
  -14.3010  -17.3380   38.6460 H   0  0  0  0  0  0  0  0  0  0  0  0
  -12.0190  -18.1160   39.4220 H   0  0  0  0  0  0  0  0  0  0  0  0
  -12.4290  -15.1450   35.3410 H   0  0  0  0  0  0  0  0  0  0  0  0
   -9.3680  -15.3700   35.2430 H   0  0  0  0  0  0  0  0  0  0  0  0
   -8.5780  -15.8800   35.8470 H   0  0  0  0  0  0  0  0  0  0  0  0
   -7.5760  -16.7040   36.8600 H   0  0  0  0  0  0  0  0  0  0  0  0
   -8.0800  -17.2540   37.6940 H   0  0  0  0  0  0  0  0  0  0  0  0
   -7.3580  -18.4360   39.2410 O   0  0  0  0  0  0  0  0  0  0  0  0
   -6.9980  -18.9630   39.9270 H   0  0  0  0  0  0  0  0  0  0  0  0
  -19.0090  -13.1960   31.5690 C   0  0  0  0  0  3  0  0  0  0  0  0
  -17.6050  -12.7390   31.8320 C   0  0  0  0  0  0  0  0  0  0  0  0
  -16.8430  -13.2890   33.0010 C   0  0  0  0  0  0  0  0  0  0  0  0
  -17.4860  -14.2980   33.9070 C   0  0  0  0  0  0  0  0  0  0  0  0
  -18.8900  -14.7540   33.6440 C   0  0  0  0  0  0  0  0  0  0  0  0
  -19.6520  -14.2040   32.4760 C   0  0  0  0  0  0  0  0  0  0  0  0
  -17.1630  -12.0450   31.2080 H   0  0  0  0  0  0  0  0  0  0  0  0
  -15.8770  -12.9750   33.1830 H   0  0  0  0  0  0  0  0  0  0  0  0
  -19.3330  -15.4480   34.2670 H   0  0  0  0  0  0  0  0  0  0  0  0
  -20.6180  -14.5180   32.2940 H   0  0  0  0  0  0  0  0  0  0  0  0
  -19.7700  -12.6450   30.4000 O   0  0  0  0  0 15  0  0  0  0  0  0
  -19.4850  -13.1470   29.0160 C   0  0  0  0  0  2  0  0  0  0  0  0
  -19.6400  -14.1790   28.7780 H   0  0  0  0  0  0  0  0  0  0  0  0
  -19.8430  -13.8200   29.7660 H   0  0  0  0  0  0  0  0  0  0  0  0
  -18.9830  -12.2020   27.9640 C   0  0  0  0  0  3  0  0  0  0  0  0
  -19.1950  -12.3900   26.9320 H   0  0  0  0  0  0  0  0  0  0  0  0
  -19.5530  -13.0630   27.6820 H   0  0  0  0  0  0  0  0  0  0  0  0
  -18.1850  -10.9960   28.3580 N   0  0  0  0  0  0  0  0  0  0  0  0
  -18.8690   -9.6760   28.5600 C   0  0  0  0  0  0  0  0  0  0  0  0
  -18.2990   -8.8160   28.8410 H   0  0  0  0  0  0  0  0  0  0  0  0
  -19.9270   -9.5960   28.4220 H   0  0  0  0  0  0  0  0  0  0  0  0
  -19.3570   -8.7350   28.7030 H   0  0  0  0  0  0  0  0  0  0  0  0
  -16.7020  -11.1090   28.5520 C   0  0  0  0  0  0  0  0  0  0  0  0
  -16.2130  -12.0500   28.4080 H   0  0  0  0  0  0  0  0  0  0  0  0
  -16.1320  -10.2480   28.8330 H   0  0  0  0  0  0  0  0  0  0  0  0
  -15.6440  -11.1890   28.6900 H   0  0  0  0  0  0  0  0  0  0  0  0
  -16.2970  -16.1150   38.7200 C   0  0  0  0  0  0  0  0  0  0  0  0
  -17.0030  -17.3940   39.0620 C   0  0  0  0  0  0  0  0  0  0  0  0
  -17.1220  -17.8250   40.4940 C   0  0  0  0  0  0  0  0  0  0  0  0
  -16.5360  -16.9790   41.5830 N   0  0  0  0  0  0  0  0  0  0  0  0
  -15.8300  -15.7000   41.2420 C   0  0  0  0  0  0  0  0  0  0  0  0
  -15.7110  -15.2680   39.8100 C   0  0  0  0  0  0  0  0  0  0  0  0
  -17.4070  -17.9770   38.3130 H   0  0  0  0  0  0  0  0  0  0  0  0
  -17.6080  -18.7050   40.7290 H   0  0  0  0  0  0  0  0  0  0  0  0
  -15.4260  -15.1170   41.9920 H   0  0  0  0  0  0  0  0  0  0  0  0
  -15.2260  -14.3890   39.5760 H   0  0  0  0  0  0  0  0  0  0  0  0
  1  2  2  0
  1  5  1  0
  2  3  1  0
  3  7  1  0
  3  4  2  0
  4 52  1  0
  5  4  1  0
  6  2  1  0
  7  8  1  0
  8  9  2  0
  8 17  1  0
  9 18  1  0
 10  9  1  0
 11 10  2  0
 12 11  1  0
 12  7  2  0
 13 11  1  0
 14 23  1  0
 16 24  1  0
 19 12  1  0
 20 13  1  0
 21 13  1  0
 22 14  1  0
 24 25  1  0
 26 27  2  0
 26 31  1  0
 27 28  1  0
 28 33  1  0
 28 29  2  0
 29  1  1  0
 30 29  1  0
 30 34  1  0
 31 30  2  0
 32 27  1  0
 35 31  1  0
 37 39  1  0
 38 37  1  0
 40 43  1  0
 41 40  1  0
 42 40  1  0
 43 48  1  0
 43 44  1  0
 44 47  1  0
 44 45  1  0
 46 44  1  0
 48 51  1  0
 48 50  1  0
 49 48  1  0
 52 53  2  0
 52 57  1  0
 53 54  1  0
 54 59  1  0
 54 55  2  0
 56 55  1  0
 56 60  1  0
 57 56  2  0
 58 53  1  0
 61 57  1  0
M  END
>  <minimizedAffinity>  (207) 
-10.0992928

$$$$

     RDKit          3D

 66 65  0  0  1  0  0  0  0  0999 V2000
  -14.6320  -15.9050   40.6830 C   0  0  0  0  0  0  0  0  0  0  0  0
  -15.3740  -16.4210   41.8790 C   0  0  0  0  0  0  0  0  0  0  0  0
  -16.8500  -16.6740   41.7940 C   0  0  0  0  0  0  0  0  0  0  0  0
  -17.5840  -16.4110   40.5130 C   0  0  0  0  0  0  0  0  0  0  0  0
  -19.0600  -16.6640   40.4280 N   0  0  0  0  0  0  0  0  0  0  0  0
  -19.7930  -16.4010   39.1460 C   0  0  0  0  0  0  0  0  0  0  0  0
  -19.0510  -15.8840   37.9500 N   0  0  0  0  0  0  0  0  0  0  0  0
  -17.5750  -15.6310   38.0350 C   0  0  0  0  0  0  0  0  0  0  0  0
  -16.8330  -15.1140   36.8380 N   0  0  0  0  0  0  0  0  0  0  0  0
  -16.8410  -15.8940   39.3160 C   0  0  0  0  0  0  0  0  0  0  0  0
  -15.3650  -15.6410   39.4010 C   0  0  0  0  0  0  0  0  0  0  0  0
  -14.8690  -16.6030   42.7610 H   0  0  0  0  0  0  0  0  0  0  0  0
  -17.3610  -17.0300   42.6180 H   0  0  0  0  0  0  0  0  0  0  0  0
  -20.8090  -16.5750   39.0880 H   0  0  0  0  0  0  0  0  0  0  0  0
  -15.8640  -14.9480   36.8940 H   0  0  0  0  0  0  0  0  0  0  0  0
  -14.8540  -15.2850   38.5780 H   0  0  0  0  0  0  0  0  0  0  0  0
  -17.5660  -14.8500   35.5570 C   0  0  0  0  0  0  0  0  0  0  0  0
  -19.0020  -15.2630   35.4160 C   0  0  0  0  0  0  0  0  0  0  0  0
  -19.7350  -14.9990   34.1340 C   0  0  0  0  0  0  0  0  0  0  0  0
  -19.0340  -14.3230   32.9940 C   0  0  0  0  0  0  0  0  0  0  0  0
  -17.5980  -13.9110   33.1340 C   0  0  0  0  0  0  0  0  0  0  0  0
  -16.8970  -13.2350   31.9940 Cl  0  0  0  0  0  0  0  0  0  0  0  0
  -16.8650  -14.1750   34.4160 C   0  0  0  0  0  0  0  0  0  0  0  0
  -19.4850  -15.7280   36.2000 H   0  0  0  0  0  0  0  0  0  0  0  0
  -20.7230  -15.2830   34.0370 H   0  0  0  0  0  0  0  0  0  0  0  0
  -15.8770  -13.8910   34.5130 H   0  0  0  0  0  0  0  0  0  0  0  0
  -19.7670  -14.0600   31.7120 O   0  0  0  0  0  0  0  0  0  0  0  0
  -19.7940  -12.6760   31.1340 C   0  0  0  0  0  0  0  0  0  0  0  0
  -20.1970  -11.8650   31.7060 H   0  0  0  0  0  0  0  0  0  0  0  0
  -19.8140  -11.6880   30.7220 H   0  0  0  0  0  0  0  0  0  0  0  0
  -19.2570  -12.4270   29.7560 C   0  0  0  0  0  0  0  0  0  0  0  0
  -19.6200  -13.3520   28.6320 C   0  0  0  0  0  0  0  0  0  0  0  0
  -19.0830  -13.1040   27.2540 C   0  0  0  0  0  0  0  0  0  0  0  0
  -18.1830  -11.9310   27.0000 C   0  0  0  0  0  0  0  0  0  0  0  0
  -17.8200  -11.0060   28.1240 C   0  0  0  0  0  0  0  0  0  0  0  0
  -16.9200   -9.8340   27.8690 F   0  0  0  0  0  0  0  0  0  0  0  0
  -18.3570  -11.2550   29.5020 C   0  0  0  0  0  0  0  0  0  0  0  0
  -20.2390  -14.1590   28.8070 H   0  0  0  0  0  0  0  0  0  0  0  0
  -19.3320  -13.7400   26.4800 H   0  0  0  0  0  0  0  0  0  0  0  0
  -17.8130  -11.7600   26.0510 H   0  0  0  0  0  0  0  0  0  0  0  0
  -18.1080  -10.6180   30.2750 H   0  0  0  0  0  0  0  0  0  0  0  0
  -10.7840  -15.6300   40.2530 C   0  0  0  0  0  1  0  0  0  0  0  0
  -10.9850  -14.8930   41.5440 C   0  0  0  0  0  3  0  0  0  0  0  0
  -12.4510  -14.9060   41.8620 C   0  0  0  0  0  0  0  0  0  0  0  0
  -13.1560  -15.6510   40.7680 C   0  0  0  0  0  3  0  0  0  0  0  0
  -12.1250  -16.0990   39.7730 O   0  0  0  0  0  0  0  0  0  0  0  0
  -10.2450  -14.4540   42.1130 H   0  0  0  0  0  0  0  0  0  0  0  0
  -12.8960  -14.4770   42.6890 H   0  0  0  0  0  0  0  0  0  0  0  0
   -9.4720  -15.8590   39.5630 C   0  0  0  0  0  3  0  0  0  0  0  0
   -8.5550  -15.6820   40.0850 H   0  0  0  0  0  0  0  0  0  0  0  0
   -9.4910  -15.5190   40.5770 H   0  0  0  0  0  0  0  0  0  0  0  0
   -9.3650  -17.7640   33.8750 O   0  0  0  0  0  0  0  0  0  0  0  0
   -9.3920  -17.2870   35.2970 S   0  0  0  0  0  3  0  0  0  0  0  0
  -10.1940  -16.0750   35.6670 C   0  0  0  0  0  3  0  0  0  0  0  0
  -10.2210  -15.5990   37.0880 C   0  0  0  0  0  2  0  0  0  0  0  0
   -9.4450  -16.3350   38.1410 N   0  0  0  0  0  2  0  0  0  0  0  0
   -8.6430  -17.5470   37.7710 C   0  0  0  0  0  3  0  0  0  0  0  0
   -8.6160  -18.0240   36.3490 C   0  0  0  0  0  2  0  0  0  0  0  0
  -10.7470  -15.5500   34.9160 H   0  0  0  0  0  0  0  0  0  0  0  0
  -10.7660  -15.2110   35.9310 H   0  0  0  0  0  0  0  0  0  0  0  0
  -10.7930  -14.7350   37.3530 H   0  0  0  0  0  0  0  0  0  0  0  0
  -10.2400  -15.2590   38.1020 H   0  0  0  0  0  0  0  0  0  0  0  0
   -8.0890  -18.0720   38.5220 H   0  0  0  0  0  0  0  0  0  0  0  0
   -8.0700  -18.4120   37.5070 H   0  0  0  0  0  0  0  0  0  0  0  0
   -8.0440  -18.8880   36.0850 H   0  0  0  0  0  0  0  0  0  0  0  0
   -8.5970  -18.3640   35.3340 H   0  0  0  0  0  0  0  0  0  0  0  0
  1 45  1  0
  1  2  1  0
  2 12  1  0
  3  2  2  0
  3 13  1  0
  4  3  1  0
  5  4  1  0
  6  5  2  0
  7  8  2  0
  7  6  1  0
  8 10  1  0
  9 15  1  0
  9  8  1  0
 10 11  1  0
 10  4  2  0
 11  1  2  0
 14  6  1  0
 16 11  1  0
 17  9  1  0
 18 17  1  0
 18 24  1  0
 19 18  2  0
 20 21  2  0
 20 19  1  0
 21 23  1  0
 22 21  1  0
 23 26  1  0
 23 17  2  0
 25 19  1  0
 27 20  1  0
 28 29  1  0
 28 27  1  0
 30 28  1  0
 31 28  1  0
 32 38  1  0
 32 31  2  0
 33 32  1  0
 34 33  2  0
 34 35  1  0
 35 37  2  0
 36 35  1  0
 37 31  1  0
 37 41  1  0
 39 33  1  0
 40 34  1  0
 43 44  2  0
 43 47  1  0
 44 48  1  0
 45 46  1  0
 45 44  1  0
 46 42  1  0
 49 50  1  0
 49 51  1  0
 52 53  2  0
 53 54  1  0
 54 60  1  0
 55 61  1  0
 55 62  1  0
 56 49  1  0
 57 56  1  0
 57 63  1  0
 59 54  1  0
 64 57  1  0
 65 58  1  0
 66 58  1  0
M  END
>  <minimizedAffinity>  (208) 
-6.8202424

$$$$

     RDKit          3D

 49 45  0  0  0  0  0  0  0  0999 V2000
  -13.6530  -14.9710   35.1610 C   0  0  0  0  0  0  0  0  0  0  0  0
  -12.4300  -14.5380   34.4070 C   0  0  0  0  0  0  0  0  0  0  0  0
  -11.0710  -14.9710   34.8710 C   0  0  0  0  0  0  0  0  0  0  0  0
  -10.9340  -15.8370   36.0880 C   0  0  0  0  0  0  0  0  0  0  0  0
  -12.1570  -16.2700   36.8410 C   0  0  0  0  0  0  0  0  0  0  0  0
  -13.5160  -15.8370   36.3780 C   0  0  0  0  0  0  0  0  0  0  0  0
  -12.5240  -13.9420   33.5700 H   0  0  0  0  0  0  0  0  0  0  0  0
  -10.2290  -14.6730   34.3530 H   0  0  0  0  0  0  0  0  0  0  0  0
  -12.0630  -16.8660   37.6790 H   0  0  0  0  0  0  0  0  0  0  0  0
  -14.3580  -16.1350   36.8960 H   0  0  0  0  0  0  0  0  0  0  0  0
  -16.5030  -13.0080   33.2190 C   0  0  0  0  0  0  0  0  0  0  0  0
  -17.7300  -13.6710   33.7700 C   0  0  0  0  0  0  0  0  0  0  0  0
  -17.5980  -14.7680   34.7840 C   0  0  0  0  0  0  0  0  0  0  0  0
  -16.2390  -15.2010   35.2480 C   0  0  0  0  0  0  0  0  0  0  0  0
  -15.0120  -14.5380   34.6970 C   0  0  0  0  0  0  0  0  0  0  0  0
  -15.1440  -13.4410   33.6820 C   0  0  0  0  0  0  0  0  0  0  0  0
  -18.6650  -13.3730   33.4510 H   0  0  0  0  0  0  0  0  0  0  0  0
  -18.4430  -15.2240   35.1630 H   0  0  0  0  0  0  0  0  0  0  0  0
  -14.2990  -12.9840   33.3030 H   0  0  0  0  0  0  0  0  0  0  0  0
  -16.2530  -12.1610   30.7750 C   0  0  0  0  0  1  0  0  0  0  0  0
  -15.7380  -13.5080   30.3610 O   0  0  0  0  0 15  0  0  0  0  0  0
  -16.6350  -11.9110   32.2040 N   0  0  0  0  0  0  0  0  0  0  0  0
  -16.9720  -11.0270   32.4760 H   0  0  0  0  0  0  0  0  0  0  0  0
  -16.3840  -11.0640   29.7600 C   0  0  0  0  0  3  0  0  0  0  0  0
  -15.5990  -10.3470   29.6430 H   0  0  0  0  0  0  0  0  0  0  0  0
  -15.5050  -11.1290   30.3660 H   0  0  0  0  0  0  0  0  0  0  0  0
  -17.6170  -10.9730   28.9110 C   0  0  0  0  0  0  0  0  0  0  0  0
  -18.4030  -11.6900   29.0290 H   0  0  0  0  0  0  0  0  0  0  0  0
  -17.7110  -10.1900   28.1870 H   0  0  0  0  0  0  0  0  0  0  0  0
  -18.4970  -10.9080   28.3050 H   0  0  0  0  0  0  0  0  0  0  0  0
  -16.1070  -16.2980   36.2630 C   0  0  0  0  0  0  0  0  0  0  0  0
  -15.1370  -16.6070   36.5940 H   0  0  0  0  0  0  0  0  0  0  0  0
  -16.9830  -16.7710   36.6560 H   0  0  0  0  0  0  0  0  0  0  0  0
  -16.0130  -17.0800   36.9870 H   0  0  0  0  0  0  0  0  0  0  0  0
   -9.5750  -16.2700   36.5520 C   0  0  0  0  0  0  0  0  0  0  0  0
   -8.6440  -16.9630   35.6020 O   0  0  0  0  0  0  0  0  0  0  0  0
   -9.1470  -16.0100   37.9660 N   0  0  0  0  0  4  0  0  0  0  0  0
   -9.7580  -15.5560   38.5890 H   0  0  0  0  0  0  0  0  0  0  0  0
   -7.7880  -16.4430   38.4290 C   0  0  0  0  0  0  0  0  0  0  0  0
   -7.0330  -15.7120   38.6300 H   0  0  0  0  0  0  0  0  0  0  0  0
   -6.8180  -16.7530   38.7600 H   0  0  0  0  0  0  0  0  0  0  0  0
   -7.4870  -17.9020   38.6120 C   0  0  0  0  0 15  0  0  0  0  0  0
   -7.9310  -19.3340   38.5740 C   0  0  0  0  0  3  0  0  0  0  0  0
   -6.5230  -18.9950   38.9650 C   0  0  0  0  0  2  0  0  0  0  0  0
   -7.2730  -18.9420   38.7420 H   0  0  0  0  0  0  0  0  0  0  0  0
   -8.6930  -20.0640   38.3980 H   0  0  0  0  0  0  0  0  0  0  0  0
   -7.4630  -20.2770   38.7720 H   0  0  0  0  0  0  0  0  0  0  0  0
   -5.5460  -19.3050   39.2710 H   0  0  0  0  0  0  0  0  0  0  0  0
   -5.9640  -18.0890   39.0700 H   0  0  0  0  0  0  0  0  0  0  0  0
  1  6  1  0
  2  3  1  0
  2  1  2  0
  3  4  2  0
  4 35  1  0
  4  5  1  0
  5  9  1  0
  6  5  2  0
  6 10  1  0
  7  2  1  0
  8  3  1  0
 11 16  2  0
 11 12  1  0
 12 13  2  0
 13 18  1  0
 13 14  1  0
 14 31  1  0
 15  1  1  0
 15 14  2  0
 16 15  1  0
 17 12  1  0
 19 16  1  0
 20 22  1  0
 22 23  1  0
 22 11  1  0
 24 26  1  0
 25 24  1  0
 27 28  1  0
 27 24  1  0
 29 27  1  0
 30 27  1  0
 31 32  1  0
 31 33  1  0
 31 34  1  0
 35 37  1  0
 36 35  2  0
 37 39  2  0
 37 38  1  0
 39 40  1  0
 39 41  1  0
 43 45  1  0
 43 47  1  0
 44 49  1  0
 44 48  1  0
 46 43  1  0
M  END
>  <minimizedAffinity>  (209) 
-9.95154095

$$$$

     RDKit          3D

 34 36  0  0  0  0  0  0  0  0999 V2000
  -14.5430  -15.5980   35.3440 N   0  0  0  0  0  0  0  0  0  0  0  0
  -15.2960  -16.1850   35.5860 H   0  0  0  0  0  0  0  0  0  0  0  0
  -14.7640  -14.4370   34.4200 N   0  0  0  0  0  0  0  0  0  0  0  0
  -16.1590  -14.0040   34.0820 C   0  0  0  0  0  0  0  0  0  0  0  0
  -17.4250  -14.6300   34.5870 C   0  0  0  0  0  0  0  0  0  0  0  0
  -17.5170  -15.8010   35.5210 O   0  0  0  0  0  0  0  0  0  0  0  0
  -18.5830  -13.8820   33.9960 N   0  0  0  0  0  0  0  0  0  0  0  0
  -18.0320  -12.7920   33.1240 C   0  0  0  0  0  0  0  0  0  0  0  0
  -18.7010  -11.7400   32.2890 C   0  0  0  0  0  0  0  0  0  0  0  0
  -17.8730  -10.7650   31.5070 C   0  0  0  0  0  0  0  0  0  0  0  0
  -16.3750  -10.8400   31.5600 C   0  0  0  0  0  0  0  0  0  0  0  0
  -15.5470   -9.8640   30.7780 Cl  0  0  0  0  0  0  0  0  0  0  0  0
  -15.7070  -11.8910   32.3950 C   0  0  0  0  0  0  0  0  0  0  0  0
  -16.5350  -12.8670   33.1770 C   0  0  0  0  0  0  0  0  0  0  0  0
  -19.5360  -14.0720   34.1520 H   0  0  0  0  0  0  0  0  0  0  0  0
  -19.7310  -11.6880   32.2530 H   0  0  0  0  0  0  0  0  0  0  0  0
  -18.3330  -10.0410   30.9330 H   0  0  0  0  0  0  0  0  0  0  0  0
  -14.6760  -11.9430   32.4310 H   0  0  0  0  0  0  0  0  0  0  0  0
  -10.4410  -16.3940   37.0150 C   0  0  0  0  0  0  0  0  0  0  0  0
  -10.5950  -15.6100   35.7450 C   0  0  0  0  0  0  0  0  0  0  0  0
  -11.9620  -15.3440   35.1880 C   0  0  0  0  0  0  0  0  0  0  0  0
  -13.1750  -15.8630   35.9010 C   0  0  0  0  0  0  0  0  0  0  0  0
  -13.0220  -16.6470   37.1710 C   0  0  0  0  0  0  0  0  0  0  0  0
  -11.6550  -16.9130   37.7280 C   0  0  0  0  0  0  0  0  0  0  0  0
   -9.7600  -15.2530   35.2550 H   0  0  0  0  0  0  0  0  0  0  0  0
  -12.0680  -14.8050   34.3150 H   0  0  0  0  0  0  0  0  0  0  0  0
  -13.8570  -17.0040   37.6610 H   0  0  0  0  0  0  0  0  0  0  0  0
  -11.5480  -17.4520   38.6010 H   0  0  0  0  0  0  0  0  0  0  0  0
   -9.0740  -16.6600   37.5720 S   0  0  1  0  0  0  0  0  0  0  0  0
   -9.5010  -16.0870   38.8910 O   0  0  0  0  0  0  0  0  0  0  0  0
   -8.6470  -17.2320   36.2530 O   0  0  0  0  0  0  0  0  0  0  0  0
   -7.7070  -16.9250   38.1300 N   0  0  0  0  0  0  0  0  0  0  0  0
   -7.4940  -16.6780   39.0970 H   0  0  0  0  0  0  0  0  0  0  0  0
   -6.9910  -17.3530   37.5430 H   0  0  0  0  0  0  0  0  0  0  0  0
  1  2  1  0
  1 22  1  0
  3  1  1  0
  4  3  2  0
  4  5  1  0
  5  6  2  0
  7 15  1  0
  7  5  1  0
  8 14  1  0
  8  7  1  0
  9  8  2  0
 10 11  2  0
 10  9  1  0
 11 13  1  0
 12 11  1  0
 13 18  1  0
 13 14  2  0
 14  4  1  0
 16  9  1  0
 17 10  1  0
 19 29  1  0
 19 24  1  0
 20 19  2  0
 21 20  1  0
 21 22  2  0
 22 23  1  0
 23 27  1  0
 23 24  2  0
 24 28  1  0
 25 20  1  0
 26 21  1  0
 29 32  1  0
 29 30  2  0
 31 29  2  0
 32 33  1  0
 34 32  1  0
M  END
>  <minimizedAffinity>  (210) 
-8.1581068

$$$$

     RDKit          3D

 48 51  0  0  0  0  0  0  0  0999 V2000
  -17.1260  -15.9480   36.6660 C   0  0  0  0  0  0  0  0  0  0  0  0
  -15.7180  -16.4370   36.5010 C   0  0  0  0  0  0  0  0  0  0  0  0
  -15.3150  -17.1250   37.7710 C   0  0  0  0  0  0  0  0  0  0  0  0
  -16.4730  -17.0610   38.7210 C   0  0  0  0  0  0  0  0  0  0  0  0
  -17.5940  -16.3330   38.0380 S   0  0  0  0  0  0  0  0  0  0  0  0
  -15.1310  -16.3210   35.6610 H   0  0  0  0  0  0  0  0  0  0  0  0
  -16.8650  -12.6730   32.1010 C   0  0  0  0  0  0  0  0  0  0  0  0
  -18.2720  -12.9670   32.5280 C   0  0  0  0  0  0  0  0  0  0  0  0
  -18.5250  -13.8280   33.7300 C   0  0  0  0  0  0  0  0  0  0  0  0
  -19.7940  -14.2880   34.3860 N   0  0  0  0  0  0  0  0  0  0  0  0
  -19.4240  -15.1380   35.5660 C   0  0  0  0  0  0  0  0  0  0  0  0
  -17.9280  -15.2030   35.6390 N   0  0  0  0  0  0  0  0  0  0  0  0
  -17.3720  -14.3940   34.5040 C   0  0  0  0  0  0  0  0  0  0  0  0
  -15.9650  -14.0990   34.0760 C   0  0  0  0  0  0  0  0  0  0  0  0
  -15.7120  -13.2380   32.8740 C   0  0  0  0  0  0  0  0  0  0  0  0
  -19.0660  -12.5780   31.9960 H   0  0  0  0  0  0  0  0  0  0  0  0
  -20.0840  -15.5970   36.2130 H   0  0  0  0  0  0  0  0  0  0  0  0
  -15.1720  -14.4880   34.6090 H   0  0  0  0  0  0  0  0  0  0  0  0
  -16.6110  -11.8110   30.8980 O   0  0  0  0  0  0  0  0  0  0  0  0
  -16.1880  -10.3830   31.0750 C   0  0  0  0  0  0  0  0  0  0  0  0
  -16.0670   -9.9790   32.0580 H   0  0  0  0  0  0  0  0  0  0  0  0
  -16.0070   -9.7690   30.2170 H   0  0  0  0  0  0  0  0  0  0  0  0
  -15.8860   -9.3640   31.2010 H   0  0  0  0  0  0  0  0  0  0  0  0
  -14.3040  -12.9430   32.4460 O   0  0  0  0  0  0  0  0  0  0  0  0
  -13.1860  -13.8440   32.8770 C   0  0  0  0  0  0  0  0  0  0  0  0
  -12.1810  -13.6340   32.5720 H   0  0  0  0  0  0  0  0  0  0  0  0
  -13.3910  -14.6980   33.4890 H   0  0  0  0  0  0  0  0  0  0  0  0
  -12.3870  -14.4870   33.1840 H   0  0  0  0  0  0  0  0  0  0  0  0
  -16.5070  -17.6260   40.1100 C   0  0  0  0  0  0  0  0  0  0  0  0
  -15.7350  -18.8710   40.4330 N   0  0  0  0  0  0  0  0  0  0  0  0
  -17.3110  -16.9450   41.1780 O   0  0  0  0  0  0  0  0  0  0  0  0
  -15.2060  -19.3180   39.7320 H   0  0  0  0  0  0  0  0  0  0  0  0
  -15.7570  -19.2410   41.3450 H   0  0  0  0  0  0  0  0  0  0  0  0
  -13.9860  -17.7650   38.0430 O   0  0  0  0  0  0  0  0  0  0  0  0
  -12.8030  -16.9150   38.4000 C   0  0  0  0  0  0  0  0  0  0  0  0
  -12.8010  -16.3560   39.3120 H   0  0  0  0  0  0  0  0  0  0  0  0
  -11.9590  -16.3080   38.6550 H   0  0  0  0  0  0  0  0  0  0  0  0
  -11.6220  -16.8470   37.4780 C   0  0  0  0  0  0  0  0  0  0  0  0
  -10.4260  -17.7180   37.7260 C   0  0  0  0  0  0  0  0  0  0  0  0
   -9.2450  -17.6500   36.8030 C   0  0  0  0  0  0  0  0  0  0  0  0
   -9.2600  -16.7120   35.6340 C   0  0  0  0  0  0  0  0  0  0  0  0
  -10.4550  -15.8410   35.3860 C   0  0  0  0  0  0  0  0  0  0  0  0
  -11.6370  -15.9080   36.3080 C   0  0  0  0  0  0  0  0  0  0  0  0
  -12.8320  -15.0380   36.0610 Cl  0  0  0  0  0  0  0  0  0  0  0  0
  -10.4160  -18.3640   38.5300 H   0  0  0  0  0  0  0  0  0  0  0  0
   -8.4220  -18.2500   36.9740 H   0  0  0  0  0  0  0  0  0  0  0  0
   -8.4470  -16.6650   34.9990 H   0  0  0  0  0  0  0  0  0  0  0  0
  -10.4660  -15.1950   34.5810 H   0  0  0  0  0  0  0  0  0  0  0  0
  1  5  1  0
  2  1  2  0
  2  3  1  0
  3 34  1  0
  3  4  2  0
  4 29  1  0
  5  4  1  0
  6  2  1  0
  7  8  2  0
  7 15  1  0
  8  9  1  0
  9 10  1  0
  9 13  2  0
 10 11  2  0
 11 12  1  0
 11 17  1  0
 12  1  1  0
 13 12  1  0
 14 13  1  0
 14 18  1  0
 15 14  2  0
 16  8  1  0
 19 20  1  0
 19  7  1  0
 20 23  1  0
 20 21  1  0
 22 20  1  0
 24 15  1  0
 24 25  1  0
 25 28  1  0
 25 27  1  0
 26 25  1  0
 29 30  1  0
 29 31  2  0
 30 33  1  0
 32 30  1  0
 34 35  1  0
 35 37  1  0
 35 36  1  0
 38 39  1  0
 38 35  1  0
 39 45  1  0
 40 46  1  0
 40 39  2  0
 41 40  1  0
 42 41  2  0
 42 43  1  0
 43 38  2  0
 44 43  1  0
 47 41  1  0
 48 42  1  0
M  END
>  <minimizedAffinity>  (211) 
-9.06252956

$$$$

     RDKit          3D

 44 44  0  0  0  0  0  0  0  0999 V2000
  -14.7470  -14.2950   34.2200 C   0  0  0  0  0  0  0  0  0  0  0  0
  -13.2890  -14.6290   34.3400 N   0  0  0  0  0  0  0  0  0  0  0  0
  -13.0830  -15.3360   35.6460 C   0  0  0  0  0  0  0  0  0  0  0  0
  -14.4120  -15.4380   36.3340 C   0  0  0  0  0  0  0  0  0  0  0  0
  -15.4410  -14.7950   35.4530 N   0  0  0  0  0  0  0  0  0  0  0  0
  -16.4020  -14.7140   35.6480 H   0  0  0  0  0  0  0  0  0  0  0  0
  -16.6970  -12.1640   30.7690 C   0  0  0  0  0 15  0  0  0  0  0  0
  -15.2410  -12.5190   30.7050 C   0  0  0  0  0  3  0  0  0  0  0  0
  -14.5910  -13.2300   31.8550 C   0  0  0  0  0  0  0  0  0  0  0  0
  -15.3970  -13.5850   33.0700 C   0  0  0  0  0  0  0  0  0  0  0  0
  -16.8530  -13.2290   33.1330 C   0  0  0  0  0  0  0  0  0  0  0  0
  -17.5030  -12.5190   31.9830 C   0  0  0  0  0  2  0  0  0  0  0  0
  -14.6860  -12.2750   29.8700 H   0  0  0  0  0  0  0  0  0  0  0  0
  -13.5890  -13.4740   31.8110 H   0  0  0  0  0  0  0  0  0  0  0  0
  -17.4080  -13.4740   33.9690 H   0  0  0  0  0  0  0  0  0  0  0  0
  -18.5050  -12.2750   32.0270 H   0  0  0  0  0  0  0  0  0  0  0  0
  -17.3470  -11.4540   29.6190 C   0  0  0  0  0  3  0  0  0  0  0  0
  -17.5020  -10.3960   29.6620 H   0  0  0  0  0  0  0  0  0  0  0  0
  -17.0380  -10.9030   30.4820 H   0  0  0  0  0  0  0  0  0  0  0  0
  -17.7790  -12.2270   28.4080 N   0  0  0  0  0  0  0  0  0  0  0  0
  -17.6310  -13.2350   28.3670 H   0  0  0  0  0  0  0  0  0  0  0  0
  -18.2210  -11.7440   27.6260 H   0  0  0  0  0  0  0  0  0  0  0  0
  -11.7750  -15.8510   36.1730 C   0  0  0  0  0  0  0  0  0  0  0  0
  -10.6070  -16.0160   35.2470 C   0  0  0  0  0  0  0  0  0  0  0  0
   -9.2990  -16.5300   35.7730 C   0  0  0  0  0  0  0  0  0  0  0  0
   -9.1610  -16.8790   37.2260 C   0  0  0  0  0  0  0  0  0  0  0  0
   -7.8550  -17.3940   37.7520 Cl  0  0  0  0  0  0  0  0  0  0  0  0
  -10.3300  -16.7140   38.1510 C   0  0  0  0  0  0  0  0  0  0  0  0
  -11.6370  -16.2000   37.6240 C   0  0  0  0  0  0  0  0  0  0  0  0
  -10.7020  -15.7750   34.2480 H   0  0  0  0  0  0  0  0  0  0  0  0
   -8.4960  -16.6440   35.1370 H   0  0  0  0  0  0  0  0  0  0  0  0
  -12.4410  -16.0860   38.2620 H   0  0  0  0  0  0  0  0  0  0  0  0
  -10.1910  -17.0640   39.6040 O   0  0  0  0  0  0  0  0  0  0  0  0
   -9.3750  -17.3850   39.9330 H   0  0  0  0  0  0  0  0  0  0  0  0
  -14.6670  -16.0730   37.6690 C   0  0  0  0  0  0  0  0  0  0  0  0
  -14.7960  -17.5630   37.7780 C   0  0  0  0  0  0  0  0  0  0  0  0
  -15.0520  -18.1980   39.1140 C   0  0  0  0  0  0  0  0  0  0  0  0
  -15.1780  -17.3420   40.3390 N   0  0  0  0  0  0  0  0  0  0  0  0
  -15.0500  -15.8520   40.2300 C   0  0  0  0  0  0  0  0  0  0  0  0
  -14.7940  -15.2180   38.8940 C   0  0  0  0  0  0  0  0  0  0  0  0
  -14.7090  -18.1520   36.9350 H   0  0  0  0  0  0  0  0  0  0  0  0
  -15.1400  -19.2230   39.1890 H   0  0  0  0  0  0  0  0  0  0  0  0
  -15.1370  -15.2640   41.0720 H   0  0  0  0  0  0  0  0  0  0  0  0
  -14.7050  -14.1920   38.8190 H   0  0  0  0  0  0  0  0  0  0  0  0
  1  2  2  0
  1  5  1  0
  2  3  1  0
  3 23  1  0
  3  4  2  0
  4 35  1  0
  5  6  1  0
  5  4  1  0
  8  9  2  0
  9 10  1  0
 10 11  2  0
 10  1  1  0
 11 15  1  0
 12 16  1  0
 12 11  1  0
 13  8  1  0
 14  9  1  0
 17 18  1  0
 17 19  1  0
 20 17  1  0
 21 20  1  0
 22 20  1  0
 23 29  1  0
 24 25  1  0
 24 23  2  0
 25 26  2  0
 26 27  1  0
 26 28  1  0
 28 33  1  0
 29 28  2  0
 29 32  1  0
 30 24  1  0
 31 25  1  0
 33 34  1  0
 35 36  2  0
 35 40  1  0
 36 37  1  0
 37 42  1  0
 37 38  2  0
 39 38  1  0
 39 43  1  0
 40 39  2  0
 41 36  1  0
 44 40  1  0
M  END
>  <minimizedAffinity>  (212) 
-9.07442665

$$$$

     RDKit          3D

 35 37  0  0  1  0  0  0  0  0999 V2000
  -14.4930  -16.3990   36.8000 N   0  0  0  0  0  4  0  0  0  0  0  0
  -15.1220  -16.1230   36.0950 H   0  0  0  0  0  0  0  0  0  0  0  0
  -15.0110  -16.9750   38.0840 C   0  0  0  0  0  0  0  0  0  0  0  0
  -16.4750  -16.9040   38.4010 C   0  0  0  0  0  3  0  0  0  0  0  0
  -17.5360  -16.2910   37.5360 C   0  0  0  0  0  0  0  0  0  0  0  0
  -17.3190  -15.6410   36.2020 O   0  0  0  0  0  0  0  0  0  0  0  0
  -18.8530  -16.4420   38.2390 N   0  0  0  0  0  0  0  0  0  0  0  0
  -18.6050  -17.1480   39.5390 C   0  0  0  0  0  0  0  0  0  0  0  0
  -19.5280  -17.5680   40.6450 C   0  0  0  0  0  0  0  0  0  0  0  0
  -18.9810  -18.2740   41.8500 C   0  0  0  0  0  0  0  0  0  0  0  0
  -17.5120  -18.5590   41.9500 C   0  0  0  0  0  0  0  0  0  0  0  0
  -16.5890  -18.1390   40.8450 C   0  0  0  0  0  0  0  0  0  0  0  0
  -17.1360  -17.4340   39.6390 C   0  0  0  0  0  0  0  0  0  0  0  0
  -14.3600  -17.4200   38.7490 H   0  0  0  0  0  0  0  0  0  0  0  0
  -19.7250  -16.1320   37.9060 H   0  0  0  0  0  0  0  0  0  0  0  0
  -20.5390  -17.3710   40.5760 H   0  0  0  0  0  0  0  0  0  0  0  0
  -19.6160  -18.5620   42.6110 H   0  0  0  0  0  0  0  0  0  0  0  0
  -17.1360  -19.0450   42.7800 H   0  0  0  0  0  0  0  0  0  0  0  0
  -15.5790  -18.3360   40.9140 H   0  0  0  0  0  0  0  0  0  0  0  0
  -10.5730  -16.7460   37.3190 C   0  0  0  0  0  0  0  0  0  0  0  0
  -10.0620  -15.9290   36.1680 C   0  0  0  0  0  0  0  0  0  0  0  0
  -11.0270  -15.2700   35.2290 C   0  0  0  0  0  0  0  0  0  0  0  0
  -12.5050  -15.4270   35.4390 C   0  0  0  0  0  0  0  0  0  0  0  0
  -13.0150  -16.2430   36.5900 C   0  0  0  0  0  0  0  0  0  0  0  0
  -12.0510  -16.9020   37.5290 C   0  0  0  0  0  0  0  0  0  0  0  0
   -9.0460  -15.8220   36.0240 H   0  0  0  0  0  0  0  0  0  0  0  0
  -10.6760  -14.7090   34.4370 H   0  0  0  0  0  0  0  0  0  0  0  0
  -13.1690  -14.9730   34.7930 H   0  0  0  0  0  0  0  0  0  0  0  0
  -12.4020  -17.4640   38.3210 H   0  0  0  0  0  0  0  0  0  0  0  0
   -9.6070  -17.4050   38.2580 S   0  0  1  0  0  0  0  0  0  0  0  0
   -9.1280  -18.2890   37.1450 O   0  0  0  0  0  0  0  0  0  0  0  0
  -10.0860  -16.5210   39.3710 O   0  0  0  0  0  0  0  0  0  0  0  0
   -8.6420  -18.0640   39.1970 N   0  0  0  0  0  0  0  0  0  0  0  0
   -8.0310  -18.8090   38.8610 H   0  0  0  0  0  0  0  0  0  0  0  0
   -8.5950  -17.7680   40.1730 H   0  0  0  0  0  0  0  0  0  0  0  0
  1  3  2  0
  2  1  1  0
  3 14  1  0
  4  3  1  0
  4 13  1  0
  5  7  1  0
  5  4  1  0
  6  5  2  0
  7  8  1  0
  8 13  2  0
  8  9  1  0
  9 10  2  0
 10 11  1  0
 10 17  1  0
 11 18  1  0
 12 19  1  0
 12 11  2  0
 13 12  1  0
 15  7  1  0
 16  9  1  0
 20 25  1  0
 20 30  1  0
 21 20  2  0
 22 23  2  0
 22 21  1  0
 23 24  1  0
 24  1  1  0
 24 25  2  0
 25 29  1  0
 26 21  1  0
 27 22  1  0
 28 23  1  0
 30 33  1  0
 30 32  2  0
 31 30  2  0
 33 35  1  0
 34 33  1  0
M  END
>  <minimizedAffinity>  (213) 
-8.61770725

$$$$

     RDKit          3D

 43 46  0  0  0  0  0  0  0  0999 V2000
  -17.3780  -16.1200   37.8480 C   0  0  0  0  0  0  0  0  0  0  0  0
  -16.3050  -16.2950   38.8810 S   0  0  0  0  0  0  0  0  0  0  0  0
  -14.9770  -16.1320   38.2020 C   0  0  0  0  0  0  0  0  0  0  0  0
  -15.2300  -15.8570   36.7500 C   0  0  0  0  0  0  0  0  0  0  0  0
  -16.7130  -15.8500   36.5300 C   0  0  0  0  0  0  0  0  0  0  0  0
  -14.5100  -15.7000   36.0280 H   0  0  0  0  0  0  0  0  0  0  0  0
  -13.6330  -16.2270   38.8610 N   0  0  0  0  0  0  0  0  0  0  0  0
  -13.3780  -16.3310   40.3350 C   0  0  0  0  0  0  0  0  0  0  0  0
  -11.8950  -16.4040   40.5470 N   0  0  0  0  0  0  0  0  0  0  0  0
  -11.2330  -16.3450   39.2020 C   0  0  0  0  0  0  0  0  0  0  0  0
   -9.7900  -16.3760   38.7910 C   0  0  0  0  0  0  0  0  0  0  0  0
   -9.4210  -16.2980   37.3400 C   0  0  0  0  0  0  0  0  0  0  0  0
  -10.4950  -16.1890   36.2980 C   0  0  0  0  0  0  0  0  0  0  0  0
  -11.9380  -16.1580   36.7080 C   0  0  0  0  0  0  0  0  0  0  0  0
  -12.3060  -16.2360   38.1600 C   0  0  0  0  0  0  0  0  0  0  0  0
  -14.0980  -16.3500   41.0750 H   0  0  0  0  0  0  0  0  0  0  0  0
   -9.0510  -16.4510   39.5080 H   0  0  0  0  0  0  0  0  0  0  0  0
   -8.4290  -16.3200   37.0570 H   0  0  0  0  0  0  0  0  0  0  0  0
  -12.6770  -16.0830   35.9910 H   0  0  0  0  0  0  0  0  0  0  0  0
  -10.1270  -16.1120   34.8460 C   0  0  0  0  0  0  0  0  0  0  0  0
   -9.7580  -16.0340   33.3940 F   0  0  0  0  0  0  0  0  0  0  0  0
  -11.1840  -15.0690   34.6330 F   0  0  0  0  0  0  0  0  0  0  0  0
   -9.0690  -17.1540   35.0590 F   0  0  0  0  0  0  0  0  0  0  0  0
  -19.7950  -15.3440   37.2950 N   0  0  0  0  0  0  0  0  0  0  0  0
  -18.8560  -16.2020   38.0890 C   0  0  0  0  0  0  0  0  0  0  0  0
  -19.3960  -17.1430   39.1260 O   0  0  0  0  0  0  0  0  0  0  0  0
  -19.4410  -14.7260   36.6140 H   0  0  0  0  0  0  0  0  0  0  0  0
  -20.7650  -15.3970   37.4530 H   0  0  0  0  0  0  0  0  0  0  0  0
  -17.4110  -15.6140   35.2230 O   0  0  0  0  0  0  0  0  0  0  0  0
  -17.4950  -14.2260   34.6580 C   0  0  0  0  0  0  0  0  0  0  0  0
  -18.2190  -13.5360   35.0400 H   0  0  0  0  0  0  0  0  0  0  0  0
  -17.5550  -13.2370   34.2560 H   0  0  0  0  0  0  0  0  0  0  0  0
  -16.5650  -13.8070   33.5600 C   0  0  0  0  0  0  0  0  0  0  0  0
  -15.0860  -13.7630   33.8050 C   0  0  0  0  0  0  0  0  0  0  0  0
  -14.1550  -13.3430   32.7060 C   0  0  0  0  0  0  0  0  0  0  0  0
  -14.7030  -12.9680   31.3620 C   0  0  0  0  0  0  0  0  0  0  0  0
  -16.1820  -13.0120   31.1150 C   0  0  0  0  0  0  0  0  0  0  0  0
  -17.1130  -13.4320   32.2140 C   0  0  0  0  0  0  0  0  0  0  0  0
  -18.5920  -13.4760   31.9690 Br  0  0  0  0  0  0  0  0  0  0  0  0
  -14.7090  -14.0210   34.7310 H   0  0  0  0  0  0  0  0  0  0  0  0
  -13.1380  -13.3130   32.8760 H   0  0  0  0  0  0  0  0  0  0  0  0
  -14.0630  -12.6800   30.6050 H   0  0  0  0  0  0  0  0  0  0  0  0
  -16.5600  -12.7550   30.1910 H   0  0  0  0  0  0  0  0  0  0  0  0
  1 25  1  0
  1  2  1  0
  3  7  1  0
  3  2  1  0
  4  3  2  0
  5  4  1  0
  5  1  2  0
  6  4  1  0
  7  8  1  0
  8  9  2  0
  8 16  1  0
 10  9  1  0
 11 10  1  0
 11 17  1  0
 12 11  2  0
 13 14  2  0
 13 12  1  0
 14 15  1  0
 15  7  1  0
 15 10  2  0
 18 12  1  0
 19 14  1  0
 20 23  1  0
 20 13  1  0
 21 20  1  0
 22 20  1  0
 24 28  1  0
 24 25  1  0
 25 26  2  0
 27 24  1  0
 29  5  1  0
 30 31  1  0
 30 29  1  0
 32 30  1  0
 33 34  1  0
 33 30  1  0
 34 40  1  0
 35 41  1  0
 35 34  2  0
 36 35  1  0
 37 36  2  0
 37 38  1  0
 38 33  2  0
 39 38  1  0
 42 36  1  0
 43 37  1  0
M  END
>  <minimizedAffinity>  (214) 
-10.0219584

$$$$

     RDKit          3D

 60 55  0  0  1  0  0  0  0  0999 V2000
  -11.1510  -16.3400   36.4190 C   0  0  0  0  0  0  0  0  0  0  0  0
  -11.6350  -15.7510   35.1270 C   0  0  0  0  0  0  0  0  0  0  0  0
  -10.4910  -15.7520   34.1580 N   0  0  0  0  0  0  0  0  0  0  0  0
   -9.2980  -16.3420   34.8510 C   0  0  0  0  0  0  0  0  0  0  0  0
   -9.7060  -16.7050   36.2480 N   0  0  0  0  0  0  0  0  0  0  0  0
   -8.3610  -16.4750   34.4390 H   0  0  0  0  0  0  0  0  0  0  0  0
   -8.8250  -17.3250   37.2920 C   0  0  0  0  0  2  0  0  0  0  0  0
   -7.9150  -16.4620   38.1140 C   0  0  0  0  0  2  0  0  0  0  0  0
   -7.0330  -17.0820   39.1580 C   0  0  0  0  0  2  0  0  0  0  0  0
   -7.0630  -18.5650   39.3790 N   0  0  0  0  0  1  0  0  0  0  0  0
   -7.9730  -19.4290   38.5570 C   0  0  0  0  0  2  0  0  0  0  0  0
   -8.8540  -18.8090   37.5130 C   0  0  0  0  0  2  0  0  0  0  0  0
   -8.1970  -17.7680   38.0360 H   0  0  0  0  0  0  0  0  0  0  0  0
   -7.8940  -15.4040   37.9560 H   0  0  0  0  0  0  0  0  0  0  0  0
   -7.2650  -15.8460   38.7010 H   0  0  0  0  0  0  0  0  0  0  0  0
   -6.3840  -16.4670   39.7440 H   0  0  0  0  0  0  0  0  0  0  0  0
   -6.4050  -17.5250   39.9020 H   0  0  0  0  0  0  0  0  0  0  0  0
   -6.4640  -18.9870   40.0880 H   0  0  0  0  0  0  0  0  0  0  0  0
   -7.9940  -20.4870   38.7150 H   0  0  0  0  0  0  0  0  0  0  0  0
   -8.6220  -20.0440   37.9700 H   0  0  0  0  0  0  0  0  0  0  0  0
   -9.5030  -19.4240   36.9270 H   0  0  0  0  0  0  0  0  0  0  0  0
   -9.4820  -18.3650   36.7680 H   0  0  0  0  0  0  0  0  0  0  0  0
  -13.0220  -15.2490   34.8530 C   0  0  0  0  0  0  0  0  0  0  0  0
  -13.2250  -14.0480   33.9770 C   0  0  0  0  0  0  0  0  0  0  0  0
  -14.6120  -13.5460   33.7030 C   0  0  0  0  0  0  0  0  0  0  0  0
  -15.7950  -14.2440   34.3040 C   0  0  0  0  0  0  0  0  0  0  0  0
  -17.1820  -13.7410   34.0290 F   0  0  0  0  0  0  0  0  0  0  0  0
  -15.5920  -15.4460   35.1790 C   0  0  0  0  0  0  0  0  0  0  0  0
  -14.2060  -15.9470   35.4530 C   0  0  0  0  0  0  0  0  0  0  0  0
  -12.4110  -13.5670   33.5640 H   0  0  0  0  0  0  0  0  0  0  0  0
  -14.7510  -12.7190   33.1000 H   0  0  0  0  0  0  0  0  0  0  0  0
  -16.4070  -15.9260   35.5920 H   0  0  0  0  0  0  0  0  0  0  0  0
  -14.0670  -16.7740   36.0560 H   0  0  0  0  0  0  0  0  0  0  0  0
  -14.0810  -17.4710   38.8440 C   0  0  0  0  0  0  0  0  0  0  0  0
  -13.6010  -16.9100   40.1500 N   0  0  0  0  0  0  0  0  0  0  0  0
  -12.3050  -16.1590   40.2120 C   0  0  0  0  0  0  0  0  0  0  0  0
  -11.4880  -15.9680   38.9680 C   0  0  0  0  0  0  0  0  0  0  0  0
  -11.9680  -16.5300   37.6620 C   0  0  0  0  0  3  0  0  0  0  0  0
  -13.2650  -17.2810   37.6010 N   0  0  0  0  0  0  0  0  0  0  0  0
  -11.9740  -15.7720   41.1100 H   0  0  0  0  0  0  0  0  0  0  0  0
  -10.5960  -15.4510   39.0110 H   0  0  0  0  0  0  0  0  0  0  0  0
  -15.3780  -18.2230   38.7830 O   0  0  0  0  0  0  0  0  0  0  0  0
  -17.5890  -16.9180   39.1790 C   0  0  0  0  0 15  0  0  0  0  0  0
  -18.7250  -16.5300   40.0790 C   0  0  0  0  0  2  0  0  0  0  0  0
  -18.7840  -17.0570   41.4820 C   0  0  0  0  0  0  0  0  0  0  0  0
  -17.7090  -17.9740   41.9850 C   0  0  0  0  0  0  0  0  0  0  0  0
  -16.5730  -18.3620   41.0850 C   0  0  0  0  0  0  0  0  0  0  0  0
  -16.5130  -17.8340   39.6820 C   0  0  0  0  0  3  0  0  0  0  0  0
  -19.4650  -15.8990   39.7330 H   0  0  0  0  0  0  0  0  0  0  0  0
  -19.5660  -16.7900   42.1010 H   0  0  0  0  0  0  0  0  0  0  0  0
  -17.7500  -18.3370   42.9500 H   0  0  0  0  0  0  0  0  0  0  0  0
  -15.8330  -18.9920   41.4310 H   0  0  0  0  0  0  0  0  0  0  0  0
  -17.5300  -16.3910   37.7770 C   0  0  0  0  0  3  0  0  0  0  0  0
  -16.8390  -16.8120   37.0760 H   0  0  0  0  0  0  0  0  0  0  0  0
  -16.8820  -17.1880   38.0760 H   0  0  0  0  0  0  0  0  0  0  0  0
  -17.9900  -13.8490   37.4990 N   0  0  0  0  0  0  0  0  0  0  0  0
  -18.4380  -15.2730   37.3560 C   0  0  0  0  0  0  0  0  0  0  0  0
  -19.7940  -15.5800   36.7940 O   0  0  0  0  0  0  0  0  0  0  0  0
  -18.5860  -13.1150   37.2230 H   0  0  0  0  0  0  0  0  0  0  0  0
  -17.1000  -13.6480   37.8680 H   0  0  0  0  0  0  0  0  0  0  0  0
  2  1  2  0
  3  4  2  0
  3  2  1  0
  4  5  1  0
  5  1  1  0
  5  7  1  0
  6  4  1  0
  7 13  1  0
  8 15  1  0
  9 16  1  0
  9 17  1  0
 10 18  1  0
 11 19  1  0
 14  8  1  0
 20 11  1  0
 21 12  1  0
 22 12  1  0
 23  2  1  0
 23 29  1  0
 24 23  2  0
 25 24  1  0
 25 26  2  0
 26 28  1  0
 27 26  1  0
 28 29  2  0
 28 32  1  0
 29 33  1  0
 30 24  1  0
 31 25  1  0
 34 35  2  0
 35 36  1  0
 36 40  1  0
 37 41  1  0
 37 36  2  0
 38  1  1  0
 38 37  1  0
 39 38  1  0
 39 34  2  0
 42 34  1  0
 42 48  1  0
 44 45  1  0
 45 46  2  0
 45 50  1  0
 46 51  1  0
 47 52  1  0
 47 46  1  0
 48 47  2  0
 49 44  1  0
 53 55  1  0
 54 53  1  0
 56 60  1  0
 57 56  1  0
 57 53  1  0
 58 57  2  0
 59 56  1  0
M  END
>  <minimizedAffinity>  (215) 
-10.5072861

$$$$

     RDKit          3D

 65 61  0  0  0  0  0  0  0  0999 V2000
  -17.0000  -16.5610   38.9160 C   0  0  0  0  0  0  0  0  0  0  0  0
  -18.4700  -16.2680   38.9440 C   0  0  0  0  0  0  0  0  0  0  0  0
  -19.0540  -15.2670   37.9920 C   0  0  0  0  0  0  0  0  0  0  0  0
  -18.1670  -14.5570   37.0120 C   0  0  0  0  0  0  0  0  0  0  0  0
  -16.6960  -14.8500   36.9850 C   0  0  0  0  0  0  0  0  0  0  0  0
  -16.1120  -15.8510   37.9370 C   0  0  0  0  0  0  0  0  0  0  0  0
  -19.0810  -16.7560   39.6180 H   0  0  0  0  0  0  0  0  0  0  0  0
  -20.0660  -15.0660   38.0110 H   0  0  0  0  0  0  0  0  0  0  0  0
  -16.0850  -14.3620   36.3110 H   0  0  0  0  0  0  0  0  0  0  0  0
  -14.6410  -16.1440   37.9090 C   0  0  0  0  0  0  0  0  0  0  0  0
  -13.9500  -16.3900   36.6010 C   0  0  0  0  0  0  0  0  0  0  0  0
  -12.4790  -16.6820   36.5740 C   0  0  0  0  0  0  0  0  0  0  0  0
  -11.6990  -16.7280   37.8540 C   0  0  0  0  0  0  0  0  0  0  0  0
  -12.3910  -16.4820   39.1620 C   0  0  0  0  0  0  0  0  0  0  0  0
  -13.8620  -16.1900   39.1900 C   0  0  0  0  0  0  0  0  0  0  0  0
  -14.4860  -16.3580   35.7200 H   0  0  0  0  0  0  0  0  0  0  0  0
  -12.0030  -16.8510   35.6740 H   0  0  0  0  0  0  0  0  0  0  0  0
  -11.8540  -16.5140   40.0440 H   0  0  0  0  0  0  0  0  0  0  0  0
  -14.3370  -16.0200   40.0900 H   0  0  0  0  0  0  0  0  0  0  0  0
  -10.2280  -17.0200   37.8270 C   0  0  0  0  0  0  0  0  0  0  0  0
   -9.6130  -17.6570   36.6160 O   0  0  0  0  0  0  0  0  0  0  0  0
   -9.3730  -16.6760   39.0100 N   0  0  0  0  0  4  0  0  0  0  0  0
   -9.7770  -16.2590   39.8040 H   0  0  0  0  0  0  0  0  0  0  0  0
   -7.9020  -16.9680   38.9820 C   0  0  0  0  0  0  0  0  0  0  0  0
   -7.1960  -16.1710   39.0840 H   0  0  0  0  0  0  0  0  0  0  0  0
   -6.8520  -17.1770   38.9630 H   0  0  0  0  0  0  0  0  0  0  0  0
   -7.4210  -18.3790   38.8130 C   0  0  0  0  0 15  0  0  0  0  0  0
   -6.2950  -19.3680   38.7470 C   0  0  0  0  0  3  0  0  0  0  0  0
   -7.7120  -19.8330   38.5860 C   0  0  0  0  0  2  0  0  0  0  0  0
   -7.0770  -19.3850   38.6920 H   0  0  0  0  0  0  0  0  0  0  0  0
   -5.2480  -19.5840   38.7860 H   0  0  0  0  0  0  0  0  0  0  0  0
   -6.2250  -20.4260   38.6000 H   0  0  0  0  0  0  0  0  0  0  0  0
   -8.4160  -20.6220   38.4270 H   0  0  0  0  0  0  0  0  0  0  0  0
   -8.6700  -19.3550   38.5910 H   0  0  0  0  0  0  0  0  0  0  0  0
  -16.4160  -17.5620   39.8680 C   0  0  0  0  0  0  0  0  0  0  0  0
  -17.0490  -18.0680   40.5670 H   0  0  0  0  0  0  0  0  0  0  0  0
  -15.3660  -17.7710   39.8490 H   0  0  0  0  0  0  0  0  0  0  0  0
  -16.0000  -18.2770   40.5470 H   0  0  0  0  0  0  0  0  0  0  0  0
  -18.7500  -13.5560   36.0600 N   0  0  0  0  0  0  0  0  0  0  0  0
  -18.0440  -13.2440   34.7740 C   0  0  0  0  0  0  0  0  0  0  0  0
  -16.7550  -13.9330   34.4400 O   0  0  0  0  0  0  0  0  0  0  0  0
  -19.5970  -13.1040   36.2800 H   0  0  0  0  0  0  0  0  0  0  0  0
  -18.6280  -12.2420   33.8220 C   0  0  0  0  0  0  0  0  0  0  0  0
  -19.1830  -10.9490   34.3410 C   0  0  0  0  0  0  0  0  0  0  0  0
  -19.7660   -9.9470   33.3890 C   0  0  0  0  0  3  0  0  0  0  0  0
  -19.7950  -10.2390   31.9180 N   0  0  0  0  0  0  0  0  0  0  0  0
  -19.2400  -11.5320   31.3990 C   0  0  0  0  0  0  0  0  0  0  0  0
  -18.6560  -12.5340   32.3510 C   0  0  0  0  0  3  0  0  0  0  0  0
  -19.1630  -10.7480   35.3540 H   0  0  0  0  0  0  0  0  0  0  0  0
  -20.1480   -9.0570   33.7470 H   0  0  0  0  0  0  0  0  0  0  0  0
  -18.2740  -13.4240   31.9940 H   0  0  0  0  0  0  0  0  0  0  0  0
  -19.2680  -11.8240   29.9280 N   0  0  0  0  0  2  0  0  0  0  0  0
  -19.0180  -13.2180   29.4350 C   0  0  0  0  0  3  0  0  0  0  0  0
  -19.0470  -13.5100   27.9640 C   0  0  0  0  0  2  0  0  0  0  0  0
  -19.3250  -12.4070   26.9860 O   0  0  0  0  0  1  0  0  0  0  0  0
  -19.5750  -11.0130   27.4790 C   0  0  0  0  0  3  0  0  0  0  0  0
  -19.5470  -10.7210   28.9500 C   0  0  0  0  0  2  0  0  0  0  0  0
  -18.8200  -14.0050   30.1330 H   0  0  0  0  0  0  0  0  0  0  0  0
  -18.8400  -14.2130   29.0830 H   0  0  0  0  0  0  0  0  0  0  0  0
  -18.8690  -14.5040   27.6120 H   0  0  0  0  0  0  0  0  0  0  0  0
  -19.0670  -13.7180   26.9140 H   0  0  0  0  0  0  0  0  0  0  0  0
  -19.7740  -10.2260   26.7810 H   0  0  0  0  0  0  0  0  0  0  0  0
  -19.7540  -10.0180   27.8310 H   0  0  0  0  0  0  0  0  0  0  0  0
  -19.7250   -9.7260   29.3020 H   0  0  0  0  0  0  0  0  0  0  0  0
  -19.5270  -10.5130   30.0000 H   0  0  0  0  0  0  0  0  0  0  0  0
  1  2  1  0
  1 35  1  0
  2  7  1  0
  3  8  1  0
  3  2  2  0
  4  3  1  0
  5  4  2  0
  5  6  1  0
  6  1  2  0
  9  5  1  0
 10  6  1  0
 10 15  1  0
 11 10  2  0
 12 11  1  0
 12 13  2  0
 13 14  1  0
 14 15  2  0
 14 18  1  0
 15 19  1  0
 16 11  1  0
 17 12  1  0
 20 13  1  0
 20 22  1  0
 21 20  2  0
 22 23  1  0
 24 22  2  0
 24 25  1  0
 26 24  1  0
 28 31  1  0
 29 34  1  0
 30 28  1  0
 32 28  1  0
 33 29  1  0
 35 38  1  0
 35 36  1  0
 37 35  1  0
 39 42  1  0
 39  4  1  0
 40 39  1  0
 41 40  2  0
 43 44  2  0
 43 40  1  0
 44 49  1  0
 45 50  1  0
 45 44  1  0
 46 45  1  0
 47 46  2  0
 47 48  1  0
 48 43  1  0
 51 48  1  0
 52 47  1  0
 53 52  1  0
 53 58  1  0
 55 56  1  0
 56 63  1  0
 57 64  1  0
 57 65  1  0
 59 53  1  0
 60 54  1  0
 61 54  1  0
 62 56  1  0
M  END
>  <minimizedAffinity>  (216) 
-7.66632223

$$$$

     RDKit          3D

 54 49  0  0  0  0  0  0  0  0999 V2000
  -16.3310  -15.6990   36.4520 N   0  0  0  0  0 15  0  0  0  0  0  0
  -15.8100  -16.5040   37.6050 C   0  0  0  0  0  2  0  0  0  0  0  0
  -14.3140  -16.5580   37.4960 N   0  0  0  0  0  2  0  0  0  0  0  0
  -13.9110  -15.7850   36.2750 C   0  0  0  0  0  0  0  0  0  0  0  0
  -12.5710  -15.4960   35.6680 C   0  0  0  0  0  0  0  0  0  0  0  0
  -12.4760  -14.6770   34.4150 N   0  0  0  0  0  0  0  0  0  0  0  0
  -13.7220  -14.1470   33.7690 C   0  0  0  0  0  0  0  0  0  0  0  0
  -15.0620  -14.4350   34.3770 C   0  0  0  0  0  0  0  0  0  0  0  0
  -15.1570  -15.2550   35.6300 C   0  0  0  0  0  3  0  0  0  0  0  0
  -15.9190  -14.0700   33.9330 H   0  0  0  0  0  0  0  0  0  0  0  0
  -16.6380  -17.1440   38.6790 C   0  0  0  0  0  0  0  0  0  0  0  0
  -18.0920  -17.5010   38.5770 N   0  0  0  0  0  0  0  0  0  0  0  0
  -18.5110  -18.1170   39.8790 O   0  0  0  0  0  0  0  0  0  0  0  0
  -17.3170  -18.1410   40.7860 N   0  0  0  0  0  0  0  0  0  0  0  0
  -16.1590  -17.5400   40.0450 C   0  0  0  0  0  0  0  0  0  0  0  0
  -14.7680  -17.3660   40.5760 N   0  0  0  0  0  0  0  0  0  0  0  0
  -14.0720  -16.9590   40.0100 H   0  0  0  0  0  0  0  0  0  0  0  0
  -14.5480  -17.6590   41.4890 H   0  0  0  0  0  0  0  0  0  0  0  0
  -17.7710  -15.3920   36.1700 C   0  0  0  0  0  3  0  0  0  0  0  0
  -18.3410  -16.0370   35.5330 H   0  0  0  0  0  0  0  0  0  0  0  0
  -17.3130  -16.2560   35.7350 H   0  0  0  0  0  0  0  0  0  0  0  0
  -18.4140  -14.1820   36.7800 C   0  0  0  0  0  0  0  0  0  0  0  0
  -17.8440  -13.5380   37.4160 H   0  0  0  0  0  0  0  0  0  0  0  0
  -19.4410  -13.9630   36.5790 H   0  0  0  0  0  0  0  0  0  0  0  0
  -18.8720  -13.3190   37.2150 H   0  0  0  0  0  0  0  0  0  0  0  0
  -13.6270  -13.3270   32.5170 C   0  0  0  0  0  3  0  0  0  0  0  0
  -12.6730  -13.1470   32.0660 H   0  0  0  0  0  0  0  0  0  0  0  0
  -13.5590  -12.7420   31.6230 H   0  0  0  0  0  0  0  0  0  0  0  0
  -14.8690  -12.7600   31.8960 N   0  0  0  0  0  1  0  0  0  0  0  0
  -15.5140  -13.2320   30.6270 C   0  0  0  0  0  3  0  0  0  0  0  0
  -16.7280  -12.3850   30.3820 C   0  0  0  0  0  2  0  0  0  0  0  0
  -16.8320  -11.3890   31.4990 C   0  0  0  0  0  2  0  0  0  0  0  0
  -15.6830  -11.6210   32.4340 C   0  0  0  0  0  2  0  0  0  0  0  0
  -15.1700  -14.0330   30.0050 H   0  0  0  0  0  0  0  0  0  0  0  0
  -16.0890  -13.4480   29.7500 H   0  0  0  0  0  0  0  0  0  0  0  0
  -17.4010  -12.4750   29.5550 H   0  0  0  0  0  0  0  0  0  0  0  0
  -17.5510  -11.7020   30.3480 H   0  0  0  0  0  0  0  0  0  0  0  0
  -17.5920  -10.6450   31.6090 H   0  0  0  0  0  0  0  0  0  0  0  0
  -16.7670  -10.7510   32.3550 H   0  0  0  0  0  0  0  0  0  0  0  0
  -15.4800  -11.0710   33.3290 H   0  0  0  0  0  0  0  0  0  0  0  0
  -14.8190  -11.9100   32.9960 H   0  0  0  0  0  0  0  0  0  0  0  0
  -11.3250  -16.0270   36.3130 C   0  0  0  0  0  0  0  0  0  0  0  0
  -10.0790  -16.5580   36.9580 C   0  0  0  0  0  0  0  0  0  0  0  0
   -8.8330  -17.0880   37.6040 C   0  0  0  0  0  0  0  0  0  0  0  0
   -8.7830  -15.8840   38.4970 C   0  0  0  0  0  0  0  0  0  0  0  0
   -9.5350  -15.1270   38.4160 H   0  0  0  0  0  0  0  0  0  0  0  0
   -7.9950  -15.7820   39.2140 H   0  0  0  0  0  0  0  0  0  0  0  0
   -8.7470  -15.0250   39.1340 H   0  0  0  0  0  0  0  0  0  0  0  0
   -8.8830  -18.2920   36.7100 C   0  0  0  0  0  0  0  0  0  0  0  0
   -8.1310  -19.0500   36.7910 H   0  0  0  0  0  0  0  0  0  0  0  0
   -9.6710  -18.3940   35.9930 H   0  0  0  0  0  0  0  0  0  0  0  0
   -8.9190  -19.1510   36.0730 H   0  0  0  0  0  0  0  0  0  0  0  0
   -7.5870  -17.6190   38.2490 O   0  0  0  0  0  0  0  0  0  0  0  0
   -7.1560  -17.1160   38.9580 H   0  0  0  0  0  0  0  0  0  0  0  0
  2 11  1  0
  3  2  1  0
  4  3  1  0
  5  4  1  0
  5 42  1  0
  6  5  2  0
  7  8  2  0
  7  6  1  0
  8  9  1  0
  9  4  2  0
 10  8  1  0
 11 15  1  0
 12 11  2  0
 12 13  1  0
 13 14  1  0
 15 16  1  0
 15 14  2  0
 16 18  1  0
 17 16  1  0
 19 22  1  0
 20 19  1  0
 21 19  1  0
 22 25  1  0
 22 23  1  0
 24 22  1  0
 26  7  1  0
 27 26  1  0
 28 26  1  0
 30 29  1  0
 32 38  1  0
 32 39  1  0
 33 41  1  0
 33 40  1  0
 34 30  1  0
 35 30  1  0
 36 31  1  0
 37 31  1  0
 42 43  3  0
 43 44  1  0
 44 53  1  0
 44 45  1  0
 45 48  1  0
 45 47  1  0
 46 45  1  0
 49 50  1  0
 49 44  1  0
 51 49  1  0
 52 49  1  0
 53 54  1  0
M  END
>  <minimizedAffinity>  (217) 
-10.0061789

$$$$

     RDKit          3D

 40 43  0  0  0  0  0  0  0  0999 V2000
  -16.7070  -16.5670   37.9200 C   0  0  0  0  0  0  0  0  0  0  0  0
  -15.5660  -16.6840   38.8870 S   0  0  0  0  0  0  0  0  0  0  0  0
  -14.3080  -16.2890   38.1690 C   0  0  0  0  0  0  0  0  0  0  0  0
  -14.6730  -15.9300   36.7600 C   0  0  0  0  0  0  0  0  0  0  0  0
  -16.1540  -16.1010   36.6060 C   0  0  0  0  0  0  0  0  0  0  0  0
  -14.0190  -15.6180   36.0250 H   0  0  0  0  0  0  0  0  0  0  0  0
  -12.9300  -16.2610   38.7590 N   0  0  0  0  0  0  0  0  0  0  0  0
  -12.5950  -16.1870   40.2190 C   0  0  0  0  0  0  0  0  0  0  0  0
  -11.1010  -16.1810   40.3550 N   0  0  0  0  0  0  0  0  0  0  0  0
  -10.5120  -16.2510   38.9770 C   0  0  0  0  0  0  0  0  0  0  0  0
   -9.0920  -16.2770   38.4930 C   0  0  0  0  0  0  0  0  0  0  0  0
   -8.8020  -16.3510   37.0230 C   0  0  0  0  0  0  0  0  0  0  0  0
   -9.9310  -16.4000   36.0370 C   0  0  0  0  0  0  0  0  0  0  0  0
  -11.3510  -16.3750   36.5210 C   0  0  0  0  0  0  0  0  0  0  0  0
  -11.6410  -16.3000   37.9910 C   0  0  0  0  0  0  0  0  0  0  0  0
  -13.2750  -16.1470   40.9950 H   0  0  0  0  0  0  0  0  0  0  0  0
   -8.3150  -16.2430   39.1710 H   0  0  0  0  0  0  0  0  0  0  0  0
   -7.8250  -16.3690   36.6900 H   0  0  0  0  0  0  0  0  0  0  0  0
   -9.7310  -16.4510   35.0260 H   0  0  0  0  0  0  0  0  0  0  0  0
  -12.1280  -16.4090   35.8430 H   0  0  0  0  0  0  0  0  0  0  0  0
  -18.5110  -18.0730   39.0260 N   0  0  0  0  0  0  0  0  0  0  0  0
  -18.1460  -16.8650   38.2160 C   0  0  0  0  0  0  0  0  0  0  0  0
  -19.2220  -15.9540   37.7030 O   0  0  0  0  0  0  0  0  0  0  0  0
  -17.8050  -18.6720   39.3640 H   0  0  0  0  0  0  0  0  0  0  0  0
  -19.4560  -18.2690   39.2210 H   0  0  0  0  0  0  0  0  0  0  0  0
  -16.9460  -15.8510   35.3560 O   0  0  0  0  0  0  0  0  0  0  0  0
  -17.1660  -14.4450   34.8770 C   0  0  0  0  0  0  0  0  0  0  0  0
  -17.8710  -13.8140   35.3780 H   0  0  0  0  0  0  0  0  0  0  0  0
  -17.3230  -13.4440   34.5360 H   0  0  0  0  0  0  0  0  0  0  0  0
  -16.3990  -13.9270   33.6980 C   0  0  0  0  0  0  0  0  0  0  0  0
  -14.9060  -13.8070   33.7690 C   0  0  0  0  0  0  0  0  0  0  0  0
  -14.1380  -13.2880   32.5890 C   0  0  0  0  0  0  0  0  0  0  0  0
  -14.8640  -12.8900   31.3380 C   0  0  0  0  0  0  0  0  0  0  0  0
  -16.3570  -13.0100   31.2660 C   0  0  0  0  0  0  0  0  0  0  0  0
  -17.1250  -13.5290   32.4460 C   0  0  0  0  0  0  0  0  0  0  0  0
  -18.6190  -13.6500   32.3750 Br  0  0  0  0  0  0  0  0  0  0  0  0
  -14.4060  -14.0800   34.6300 H   0  0  0  0  0  0  0  0  0  0  0  0
  -13.1110  -13.2050   32.6380 H   0  0  0  0  0  0  0  0  0  0  0  0
  -14.3360  -12.5330   30.5260 H   0  0  0  0  0  0  0  0  0  0  0  0
  -16.8570  -12.7370   30.4070 H   0  0  0  0  0  0  0  0  0  0  0  0
  1 22  1  0
  1  2  1  0
  3  7  1  0
  3  2  1  0
  4  3  2  0
  5  4  1  0
  5  1  2  0
  6  4  1  0
  7  8  1  0
  8  9  2  0
  8 16  1  0
 10  9  1  0
 11 10  1  0
 11 17  1  0
 12 11  2  0
 13 14  2  0
 13 12  1  0
 14 15  1  0
 15  7  1  0
 15 10  2  0
 18 12  1  0
 19 13  1  0
 20 14  1  0
 21 25  1  0
 21 24  1  0
 22 21  1  0
 23 22  2  0
 26  5  1  0
 27 26  1  0
 27 28  1  0
 29 27  1  0
 30 31  1  0
 30 27  1  0
 31 37  1  0
 32 38  1  0
 32 31  2  0
 33 32  1  0
 34 33  2  0
 34 35  1  0
 35 30  2  0
 36 35  1  0
 39 33  1  0
 40 34  1  0
M  END
>  <minimizedAffinity>  (218) 
-9.34670544

$$$$

     RDKit          3D

 38 41  0  0  1  0  0  0  0  0999 V2000
  -13.8800  -13.3100   31.8730 O   0  0  0  0  0  0  0  0  0  0  0  0
  -13.5030  -14.0280   33.1350 C   0  0  0  0  0  0  0  0  0  0  0  0
  -12.1570  -14.6110   33.4490 N   0  0  0  0  0  0  0  0  0  0  0  0
  -12.2290  -15.2320   34.8140 C   0  0  0  0  0  0  0  0  0  0  0  0
  -11.2080  -15.9540   35.6430 C   0  0  0  0  0  0  0  0  0  0  0  0
  -11.5770  -16.4750   37.0000 C   0  0  0  0  0  0  0  0  0  0  0  0
  -12.9670  -16.2750   37.5280 C   0  0  0  0  0  0  0  0  0  0  0  0
  -13.9880  -15.5540   36.6990 C   0  0  0  0  0  0  0  0  0  0  0  0
  -13.6190  -15.0320   35.3420 C   0  0  0  0  0  0  0  0  0  0  0  0
  -14.4070  -14.2880   34.3040 C   0  0  0  0  0  0  0  0  0  0  0  0
  -15.8440  -13.8760   34.4170 C   0  0  0  0  0  0  0  0  0  0  0  0
  -11.3670  -14.5900   32.8640 H   0  0  0  0  0  0  0  0  0  0  0  0
  -10.2520  -16.0910   35.2790 H   0  0  0  0  0  0  0  0  0  0  0  0
  -10.8750  -16.9720   37.5700 H   0  0  0  0  0  0  0  0  0  0  0  0
  -14.9440  -15.4160   37.0620 H   0  0  0  0  0  0  0  0  0  0  0  0
  -16.3820  -14.1040   35.2670 H   0  0  0  0  0  0  0  0  0  0  0  0
  -16.5010  -13.1330   33.2920 C   0  0  0  0  0  0  0  0  0  0  0  0
  -16.0780  -11.7290   32.9710 C   0  0  0  0  0  0  0  0  0  0  0  0
  -16.7350  -10.9870   31.8460 C   0  0  0  0  0  0  0  0  0  0  0  0
  -16.3120   -9.5830   31.5250 Cl  0  0  0  0  0  0  0  0  0  0  0  0
  -17.8160  -11.6450   31.0420 C   0  0  0  0  0  0  0  0  0  0  0  0
  -18.2400  -13.0480   31.3630 C   0  0  0  0  0  0  0  0  0  0  0  0
  -19.3210  -13.7080   30.5590 Cl  0  0  0  0  0  0  0  0  0  0  0  0
  -17.5830  -13.7920   32.4880 C   0  0  0  0  0  0  0  0  0  0  0  0
  -15.3340  -11.2760   33.5250 H   0  0  0  0  0  0  0  0  0  0  0  0
  -17.8740  -14.7570   32.7090 H   0  0  0  0  0  0  0  0  0  0  0  0
  -18.4740  -10.9020   29.9180 O   0  0  0  0  0  0  0  0  0  0  0  0
  -18.2090  -10.0250   29.7170 H   0  0  0  0  0  0  0  0  0  0  0  0
  -13.3360  -16.7970   38.8850 C   0  0  0  0  0  3  0  0  0  0  0  0
  -13.9580  -18.1550   39.0230 O   0  0  0  0  0  1  0  0  0  0  0  0
  -13.0820  -15.9610   40.1040 C   0  0  0  0  0  0  0  0  0  0  0  0
  -14.0930  -15.1170   40.8200 C   0  0  0  0  0  0  0  0  0  0  0  0
  -13.4080  -14.4560   41.9800 C   0  0  0  0  0  0  0  0  0  0  0  0
  -11.9730  -14.8920   41.9810 C   0  0  0  0  0  0  0  0  0  0  0  0
  -11.7710  -15.8220   40.8210 O   0  0  0  0  0  0  0  0  0  0  0  0
  -15.0870  -15.0090   40.5610 H   0  0  0  0  0  0  0  0  0  0  0  0
  -13.8470  -13.8150   42.6590 H   0  0  0  0  0  0  0  0  0  0  0  0
  -11.2520  -14.6030   42.6590 H   0  0  0  0  0  0  0  0  0  0  0  0
  1  2  2  0
  2  3  1  0
  2 10  1  0
  3  4  1  0
  4  9  2  0
  4  5  1  0
  5  6  2  0
  6  7  1  0
  6 14  1  0
  7 29  1  0
  8 15  1  0
  8  7  2  0
  9  8  1  0
 10 11  2  0
 10  9  1  0
 11 16  1  0
 12  3  1  0
 13  5  1  0
 17 11  1  0
 18 17  1  0
 18 25  1  0
 19 18  2  0
 20 19  1  0
 21 22  2  0
 21 19  1  0
 22 24  1  0
 23 22  1  0
 24 26  1  0
 24 17  2  0
 27 21  1  0
 28 27  1  0
 29 30  1  0
 29 31  1  0
 31 32  2  0
 31 35  1  0
 32 33  1  0
 33 34  2  0
 33 37  1  0
 34 38  1  0
 35 34  1  0
 36 32  1  0
M  END
>  <minimizedAffinity>  (219) 
-8.73901653

$$$$

     RDKit          3D

 30 31  0  0  0  0  0  0  0  0999 V2000
   -9.8860  -17.2430   38.6320 N   0  0  0  0  0  2  0  0  0  0  0  0
  -10.7010  -16.6290   37.5330 C   0  0  0  0  0  0  0  0  0  0  0  0
  -10.0190  -15.9440   36.3860 N   0  0  0  0  0  0  0  0  0  0  0  0
  -10.8340  -15.3310   35.2860 C   0  0  0  0  0  3  0  0  0  0  0  0
  -12.3310  -15.4020   35.3340 C   0  0  0  0  0  0  0  0  0  0  0  0
  -13.0140  -16.0860   36.4800 C   0  0  0  0  0  0  0  0  0  0  0  0
  -12.1990  -16.7000   37.5800 N   0  0  0  0  0  0  0  0  0  0  0  0
  -10.3340  -17.6920   39.3850 H   0  0  0  0  0  0  0  0  0  0  0  0
  -10.3650  -14.8600   34.4970 H   0  0  0  0  0  0  0  0  0  0  0  0
  -12.8920  -14.9800   34.5770 H   0  0  0  0  0  0  0  0  0  0  0  0
  -14.5110  -16.1570   36.5280 C   0  0  0  0  0  0  0  0  0  0  0  0
  -15.4500  -15.7300   35.4390 C   0  0  0  0  0  0  0  0  0  0  0  0
  -16.8520  -15.9770   35.9110 N   0  0  0  0  0  0  0  0  0  0  0  0
  -16.7800  -16.5570   37.2930 N   0  0  0  0  0  0  0  0  0  0  0  0
  -17.8450  -16.9980   38.2530 N   0  0  0  0  0  0  0  0  0  0  0  0
  -17.4630  -17.5510   39.5940 C   0  0  0  0  0  0  0  0  0  0  0  0
  -16.0170  -17.6630   39.9750 C   0  0  0  0  0  0  0  0  0  0  0  0
  -14.9520  -17.2210   39.0150 C   0  0  0  0  0  0  0  0  0  0  0  0
  -15.3330  -16.6690   37.6740 C   0  0  0  0  0  0  0  0  0  0  0  0
  -15.1780  -15.3350   34.5250 H   0  0  0  0  0  0  0  0  0  0  0  0
  -18.1960  -17.8550   40.2550 H   0  0  0  0  0  0  0  0  0  0  0  0
  -15.7540  -18.0430   40.8980 H   0  0  0  0  0  0  0  0  0  0  0  0
  -13.9570  -17.2980   39.2770 H   0  0  0  0  0  0  0  0  0  0  0  0
   -8.3880  -17.1720   38.5850 C   0  0  0  0  0  3  0  0  0  0  0  0
   -7.9000  -16.2220   38.5220 H   0  0  0  0  0  0  0  0  0  0  0  0
   -8.9680  -16.2720   38.5560 H   0  0  0  0  0  0  0  0  0  0  0  0
   -6.7640  -19.6920   38.6670 F   0  0  0  0  0  0  0  0  0  0  0  0
   -7.5760  -18.4320   38.6260 C   0  0  0  0  0  0  0  0  0  0  0  0
   -6.8570  -17.9290   39.8420 F   0  0  0  0  0  0  0  0  0  0  0  0
   -8.2950  -18.9350   37.4100 F   0  0  0  0  0  0  0  0  0  0  0  0
  1  8  1  0
  2  7  2  0
  2  1  1  0
  3  2  2  0
  4  5  1  0
  4  3  1  0
  5  6  2  0
  6 11  1  0
  6  7  1  0
  9  4  1  0
 10  5  1  0
 11 19  2  0
 12 13  2  0
 12 11  1  0
 13 14  1  0
 14 19  1  0
 14 15  1  0
 15 16  2  0
 16 17  1  0
 16 21  1  0
 17 22  1  0
 18 23  1  0
 18 17  2  0
 19 18  1  0
 20 12  1  0
 24 28  1  0
 25 24  1  0
 26 24  1  0
 28 27  1  0
 28 29  1  0
 30 28  1  0
M  END
>  <minimizedAffinity>  (220) 
-9.4304409

$$$$

     RDKit          3D

 51 50  0  0  0  0  0  0  0  0999 V2000
  -15.8180  -15.9300   37.3700 N   0  0  0  0  0 15  0  0  0  0  0  0
  -15.2130  -16.3700   38.6700 C   0  0  0  0  0  2  0  0  0  0  0  0
  -13.7290  -16.4780   38.4800 N   0  0  0  0  0  2  0  0  0  0  0  0
  -13.4160  -16.1040   37.0610 C   0  0  0  0  0  0  0  0  0  0  0  0
  -12.1230  -16.0290   36.3040 C   0  0  0  0  0  0  0  0  0  0  0  0
  -12.1200  -15.6150   34.8630 N   0  0  0  0  0  0  0  0  0  0  0  0
  -13.4110  -15.2770   34.1770 C   0  0  0  0  0  0  0  0  0  0  0  0
  -14.7040  -15.3520   34.9330 C   0  0  0  0  0  0  0  0  0  0  0  0
  -14.7070  -15.7660   36.3750 C   0  0  0  0  0  3  0  0  0  0  0  0
  -15.5920  -15.1190   34.4610 H   0  0  0  0  0  0  0  0  0  0  0  0
  -15.9610  -16.6520   39.9390 C   0  0  0  0  0  0  0  0  0  0  0  0
  -16.7710  -15.6630   40.7250 N   0  0  0  0  0  0  0  0  0  0  0  0
  -17.3420  -16.3730   41.9170 O   0  0  0  0  0  0  0  0  0  0  0  0
  -16.8850  -17.8010   41.8680 N   0  0  0  0  0  0  0  0  0  0  0  0
  -16.0320  -17.9740   40.6460 C   0  0  0  0  0  0  0  0  0  0  0  0
  -15.3670  -19.2450   40.2080 N   0  0  0  0  0  0  0  0  0  0  0  0
  -14.8240  -19.2580   39.3870 H   0  0  0  0  0  0  0  0  0  0  0  0
  -15.4720  -20.0650   40.7410 H   0  0  0  0  0  0  0  0  0  0  0  0
  -17.2760  -15.6960   37.1100 C   0  0  0  0  0  3  0  0  0  0  0  0
  -17.8750  -16.4730   36.6820 H   0  0  0  0  0  0  0  0  0  0  0  0
  -16.8340  -16.6400   36.8680 H   0  0  0  0  0  0  0  0  0  0  0  0
  -17.8950  -14.3720   37.4480 C   0  0  0  0  0  0  0  0  0  0  0  0
  -17.2960  -13.5950   37.8760 H   0  0  0  0  0  0  0  0  0  0  0  0
  -18.9350  -14.2050   37.2630 H   0  0  0  0  0  0  0  0  0  0  0  0
  -18.3370  -13.4280   37.6900 H   0  0  0  0  0  0  0  0  0  0  0  0
  -10.8330  -16.3670   36.9900 C   0  0  0  0  0  0  0  0  0  0  0  0
   -9.5420  -16.7060   37.6760 C   0  0  0  0  0  0  0  0  0  0  0  0
   -8.2520  -17.0440   38.3610 C   0  0  0  0  0  0  0  0  0  0  0  0
   -8.7140  -18.4610   38.5330 C   0  0  0  0  0  0  0  0  0  0  0  0
   -9.6770  -18.7570   38.1700 H   0  0  0  0  0  0  0  0  0  0  0  0
   -8.0820  -19.1750   39.0180 H   0  0  0  0  0  0  0  0  0  0  0  0
   -9.0440  -19.4710   38.6550 H   0  0  0  0  0  0  0  0  0  0  0  0
   -7.7890  -15.6270   38.1900 C   0  0  0  0  0  0  0  0  0  0  0  0
   -6.8270  -15.3310   38.5530 H   0  0  0  0  0  0  0  0  0  0  0  0
   -8.4220  -14.9130   37.7050 H   0  0  0  0  0  0  0  0  0  0  0  0
   -7.4590  -14.6170   38.0680 H   0  0  0  0  0  0  0  0  0  0  0  0
   -6.9610  -17.3820   39.0470 O   0  0  0  0  0  0  0  0  0  0  0  0
   -6.8030  -18.2850   39.3650 H   0  0  0  0  0  0  0  0  0  0  0  0
  -13.4080  -14.8630   32.7350 O   0  0  0  0  0  0  0  0  0  0  0  0
  -13.4550  -13.4080   32.3730 C   0  0  0  0  0  0  0  0  0  0  0  0
  -12.6050  -12.7840   32.5510 H   0  0  0  0  0  0  0  0  0  0  0  0
  -13.4890  -12.3700   32.1140 H   0  0  0  0  0  0  0  0  0  0  0  0
  -14.6950  -12.8280   31.7590 C   0  0  0  0  0  0  0  0  0  0  0  0
  -15.2040  -12.0210   32.2430 H   0  0  0  0  0  0  0  0  0  0  0  0
  -15.5800  -12.4140   31.3210 H   0  0  0  0  0  0  0  0  0  0  0  0
  -15.2210  -13.3800   30.4670 N   0  0  0  0  0  0  0  0  0  0  0  0
  -14.6520  -14.0230   29.9180 H   0  0  0  0  0  0  0  0  0  0  0  0
  -16.5860  -12.9860   29.9840 C   0  0  0  0  0  0  0  0  0  0  0  0
  -16.9620  -13.3800   29.0630 H   0  0  0  0  0  0  0  0  0  0  0  0
  -17.1830  -12.3120   30.5610 H   0  0  0  0  0  0  0  0  0  0  0  0
  -17.5590  -12.7050   29.6390 H   0  0  0  0  0  0  0  0  0  0  0  0
  2 11  1  0
  3  2  1  0
  4  3  1  0
  5 26  1  0
  5  4  2  0
  6  5  1  0
  7  6  2  0
  7  8  1  0
  8  9  2  0
  9  4  1  0
 10  8  1  0
 11 15  1  0
 11 12  2  0
 12 13  1  0
 14 13  1  0
 15 14  2  0
 16 15  1  0
 16 18  1  0
 17 16  1  0
 19 22  1  0
 20 19  1  0
 21 19  1  0
 22 25  1  0
 22 23  1  0
 24 22  1  0
 26 27  3  0
 27 28  1  0
 28 29  1  0
 28 37  1  0
 29 32  1  0
 29 31  1  0
 30 29  1  0
 33 28  1  0
 33 34  1  0
 35 33  1  0
 36 33  1  0
 37 38  1  0
 39  7  1  0
 40 41  1  0
 40 39  1  0
 42 40  1  0
 43 44  1  0
 43 40  1  0
 45 43  1  0
 46 43  1  0
 47 46  1  0
 48 46  1  0
 48 50  1  0
 49 48  1  0
 51 48  1  0
M  END
>  <minimizedAffinity>  (221) 
-9.63715839

$$$$

     RDKit          3D

 53 50  0  0  1  0  0  0  0  0999 V2000
  -15.4950  -15.3360   35.4630 C   0  0  0  0  0  3  0  0  0  0  0  0
  -16.8200  -15.0920   34.8020 N   0  0  0  0  0  0  0  0  0  0  0  0
  -17.8950  -15.3300   35.8200 C   0  0  0  0  0  0  0  0  0  0  0  0
  -17.2360  -15.7210   37.1090 N   0  0  0  0  0  0  0  0  0  0  0  0
  -15.7520  -15.7250   36.8890 C   0  0  0  0  0  0  0  0  0  0  0  0
  -18.9110  -15.2410   35.6600 H   0  0  0  0  0  0  0  0  0  0  0  0
  -17.9370  -16.0510   38.3940 C   0  0  0  0  0  1  0  0  0  0  0  0
  -18.0130  -17.4730   38.8620 C   0  0  0  0  0  2  0  0  0  0  0  0
  -18.7140  -17.8030   40.1470 C   0  0  0  0  0  2  0  0  0  0  0  0
  -19.3390  -16.7110   40.9630 N   0  0  0  0  0  1  0  0  0  0  0  0
  -19.2630  -15.2880   40.4940 C   0  0  0  0  0  2  0  0  0  0  0  0
  -18.5620  -14.9590   39.2090 C   0  0  0  0  0  2  0  0  0  0  0  0
  -18.4370  -16.2870   39.3100 H   0  0  0  0  0  0  0  0  0  0  0  0
  -17.5680  -18.2540   38.2810 H   0  0  0  0  0  0  0  0  0  0  0  0
  -18.0670  -18.4890   39.1970 H   0  0  0  0  0  0  0  0  0  0  0  0
  -18.7690  -18.8180   40.4820 H   0  0  0  0  0  0  0  0  0  0  0  0
  -19.2140  -18.0390   41.0630 H   0  0  0  0  0  0  0  0  0  0  0  0
  -19.8160  -16.9350   41.8360 H   0  0  0  0  0  0  0  0  0  0  0  0
  -19.7090  -14.5080   41.0750 H   0  0  0  0  0  0  0  0  0  0  0  0
  -19.2080  -14.2730   40.1590 H   0  0  0  0  0  0  0  0  0  0  0  0
  -18.5070  -13.9430   38.8740 H   0  0  0  0  0  0  0  0  0  0  0  0
  -18.0620  -14.7230   38.2930 H   0  0  0  0  0  0  0  0  0  0  0  0
  -10.1120  -14.8420   32.8590 F   0  0  0  0  0  0  0  0  0  0  0  0
  -11.4580  -14.9650   33.5100 C   0  0  0  0  0  0  0  0  0  0  0  0
  -12.5020  -15.8600   32.9100 C   0  0  0  0  0  0  0  0  0  0  0  0
  -13.8470  -15.9840   33.5610 C   0  0  0  0  0  0  0  0  0  0  0  0
  -14.1490  -15.2120   34.8120 C   0  0  0  0  0  0  0  0  0  0  0  0
  -13.1050  -14.3180   35.4110 C   0  0  0  0  0  0  0  0  0  0  0  0
  -11.7600  -14.1940   34.7600 C   0  0  0  0  0  0  0  0  0  0  0  0
  -12.2940  -16.3910   32.0500 H   0  0  0  0  0  0  0  0  0  0  0  0
  -14.5660  -16.5990   33.1480 H   0  0  0  0  0  0  0  0  0  0  0  0
  -13.3130  -13.7870   36.2720 H   0  0  0  0  0  0  0  0  0  0  0  0
  -11.0410  -13.5780   35.1730 H   0  0  0  0  0  0  0  0  0  0  0  0
  -14.7090  -16.0580   37.9130 C   0  0  0  0  0  0  0  0  0  0  0  0
  -14.8610  -15.5750   39.3250 C   0  0  0  0  0  0  0  0  0  0  0  0
  -13.8170  -15.9080   40.3490 C   0  0  0  0  0  3  0  0  0  0  0  0
  -12.6210  -16.7260   39.9610 N   0  0  0  0  0  0  0  0  0  0  0  0
  -12.4690  -17.2100   38.5500 C   0  0  0  0  0  0  0  0  0  0  0  0
  -13.5130  -16.8770   37.5260 N   0  0  0  0  0  0  0  0  0  0  0  0
  -15.6840  -15.0120   39.5920 H   0  0  0  0  0  0  0  0  0  0  0  0
  -13.9220  -15.5750   41.3200 H   0  0  0  0  0  0  0  0  0  0  0  0
  -11.2730  -18.0280   38.1620 O   0  0  0  0  0  0  0  0  0  0  0  0
   -9.9030  -17.4170   38.1980 C   0  0  0  0  0  0  0  0  0  0  0  0
   -9.6510  -16.0990   37.5290 C   0  0  0  0  0  0  0  0  0  0  0  0
   -8.2820  -15.4890   37.5650 C   0  0  0  0  0  0  0  0  0  0  0  0
   -7.1640  -16.1960   38.2710 C   0  0  0  0  0  0  0  0  0  0  0  0
   -7.4150  -17.5150   38.9410 C   0  0  0  0  0  0  0  0  0  0  0  0
   -6.2970  -18.2230   39.6460 F   0  0  0  0  0  0  0  0  0  0  0  0
   -8.7850  -18.1260   38.9040 C   0  0  0  0  0  0  0  0  0  0  0  0
  -10.4210  -15.6120   37.0440 H   0  0  0  0  0  0  0  0  0  0  0  0
   -8.1090  -14.5810   37.1050 H   0  0  0  0  0  0  0  0  0  0  0  0
   -6.2220  -15.7770   38.2960 H   0  0  0  0  0  0  0  0  0  0  0  0
   -8.9570  -19.0330   39.3650 H   0  0  0  0  0  0  0  0  0  0  0  0
  1 27  1  0
  1  5  1  0
  2  1  1  0
  2  3  2  0
  3  4  1  0
  5  4  2  0
  5 34  1  0
  6  3  1  0
  7 13  1  0
  8 15  1  0
  9 16  1  0
  9 17  1  0
 10 18  1  0
 11 19  1  0
 14  8  1  0
 20 11  1  0
 21 12  1  0
 22 12  1  0
 23 24  1  0
 24 29  1  0
 25 24  2  0
 25 26  1  0
 26 27  2  0
 27 28  1  0
 28 32  1  0
 29 33  1  0
 29 28  2  0
 30 25  1  0
 31 26  1  0
 34 35  2  0
 35 40  1  0
 35 36  1  0
 36 41  1  0
 37 36  1  0
 38 37  2  0
 39 34  1  0
 39 38  2  0
 42 43  1  0
 42 38  1  0
 43 49  1  0
 44 45  1  0
 44 43  2  0
 45 46  2  0
 46 52  1  0
 46 47  1  0
 47 48  1  0
 49 47  2  0
 49 53  1  0
 50 44  1  0
 51 45  1  0
M  END
>  <minimizedAffinity>  (222) 
-9.78423977

$$$$

     RDKit          3D

 39 38  0  0  0  0  0  0  0  0999 V2000
  -13.4440  -14.9960   35.0370 C   0  0  0  0  0  0  0  0  0  0  0  0
  -12.1210  -14.6750   34.4080 C   0  0  0  0  0  0  0  0  0  0  0  0
  -10.8520  -15.1790   35.0300 C   0  0  0  0  0  0  0  0  0  0  0  0
  -10.9070  -16.0040   36.2810 C   0  0  0  0  0  0  0  0  0  0  0  0
  -12.2300  -16.3260   36.9100 C   0  0  0  0  0  0  0  0  0  0  0  0
  -13.4980  -15.8220   36.2880 C   0  0  0  0  0  0  0  0  0  0  0  0
  -12.0830  -14.1060   33.5470 H   0  0  0  0  0  0  0  0  0  0  0  0
   -9.9420  -14.9580   34.5970 H   0  0  0  0  0  0  0  0  0  0  0  0
  -12.2680  -16.8930   37.7700 H   0  0  0  0  0  0  0  0  0  0  0  0
  -14.8220  -16.1430   36.9170 C   0  0  0  0  0  0  0  0  0  0  0  0
  -14.9020  -17.1560   38.0200 C   0  0  0  0  0  0  0  0  0  0  0  0
  -16.2250  -17.4780   38.6490 C   0  0  0  0  0  0  0  0  0  0  0  0
  -17.4680  -16.7860   38.1750 C   0  0  0  0  0  0  0  0  0  0  0  0
  -18.9020  -16.8960   38.6010 N   0  0  0  0  0  0  0  0  0  0  0  0
  -19.7090  -15.9490   37.7610 N   0  0  0  0  0  0  0  0  0  0  0  0
  -18.7740  -15.2560   36.8170 C   0  0  0  0  0  0  0  0  0  0  0  0
  -17.3890  -15.7720   37.0720 C   0  0  0  0  0  0  0  0  0  0  0  0
  -16.0650  -15.4510   36.4430 C   0  0  0  0  0  0  0  0  0  0  0  0
  -14.0460  -17.6330   38.3460 H   0  0  0  0  0  0  0  0  0  0  0  0
  -16.2790  -18.1760   39.4080 H   0  0  0  0  0  0  0  0  0  0  0  0
  -19.2530  -17.4850   39.3080 H   0  0  0  0  0  0  0  0  0  0  0  0
  -19.0370  -14.5470   36.1140 H   0  0  0  0  0  0  0  0  0  0  0  0
  -16.0110  -14.7540   35.6850 H   0  0  0  0  0  0  0  0  0  0  0  0
  -14.7120  -14.4920   34.4150 C   0  0  0  0  0  0  0  0  0  0  0  0
  -14.6730  -13.9030   33.5220 H   0  0  0  0  0  0  0  0  0  0  0  0
  -15.6560  -14.7210   34.8630 H   0  0  0  0  0  0  0  0  0  0  0  0
  -15.6170  -14.1320   33.9710 H   0  0  0  0  0  0  0  0  0  0  0  0
   -9.6380  -16.5080   36.9030 C   0  0  0  0  0  0  0  0  0  0  0  0
   -8.3680  -15.7260   36.7520 O   0  0  0  0  0  0  0  0  0  0  0  0
   -9.6420  -17.7940   37.6750 N   0  0  0  0  0  2  0  0  0  0  0  0
  -10.4750  -18.3070   37.7740 H   0  0  0  0  0  0  0  0  0  0  0  0
   -8.3730  -18.2990   38.2980 C   0  0  0  0  0 15  0  0  0  0  0  0
   -7.1860  -18.0770   39.1870 C   0  0  0  0  0  2  0  0  0  0  0  0
   -7.3640  -19.3910   38.4860 C   0  0  0  0  0  3  0  0  0  0  0  0
   -7.4690  -18.6580   38.7420 H   0  0  0  0  0  0  0  0  0  0  0  0
   -6.6230  -17.4460   39.8420 H   0  0  0  0  0  0  0  0  0  0  0  0
   -6.3450  -18.6680   39.4860 H   0  0  0  0  0  0  0  0  0  0  0  0
   -7.0220  -20.3830   38.2750 H   0  0  0  0  0  0  0  0  0  0  0  0
   -8.0940  -19.8000   37.8190 H   0  0  0  0  0  0  0  0  0  0  0  0
  1  6  1  0
  2  3  1  0
  2  1  2  0
  3  4  2  0
  4 28  1  0
  4  5  1  0
  5  9  1  0
  6  5  2  0
  6 10  1  0
  7  2  1  0
  8  3  1  0
 10 11  1  0
 11 19  1  0
 11 12  2  0
 12 20  1  0
 13 14  1  0
 13 12  1  0
 14 21  1  0
 15 14  1  0
 16 17  1  0
 16 15  2  0
 17 13  2  0
 18 10  2  0
 18 17  1  0
 22 16  1  0
 23 18  1  0
 24 26  1  0
 24  1  1  0
 25 24  1  0
 27 24  1  0
 28 30  1  0
 29 28  2  0
 30 31  1  0
 33 37  1  0
 33 36  1  0
 34 35  1  0
 38 34  1  0
 39 34  1  0
M  END
>  <minimizedAffinity>  (223) 
-10.12222

$$$$

     RDKit          3D

 71 68  0  0  0  0  0  0  0  0999 V2000
  -12.1880  -16.5790   37.6350 C   0  0  0  0  0  0  0  0  0  0  0  0
  -13.3940  -17.4280   37.3630 C   0  0  0  0  0  0  0  0  0  0  0  0
  -14.3570  -17.7400   38.4700 C   0  0  0  0  0  0  0  0  0  0  0  0
  -14.1120  -17.2040   39.8500 C   0  0  0  0  0  0  0  0  0  0  0  0
  -12.9060  -16.3550   40.1220 C   0  0  0  0  0  0  0  0  0  0  0  0
  -11.9440  -16.0430   39.0140 C   0  0  0  0  0  0  0  0  0  0  0  0
  -13.5630  -17.7970   36.4140 H   0  0  0  0  0  0  0  0  0  0  0  0
  -15.1870  -18.3240   38.2830 H   0  0  0  0  0  0  0  0  0  0  0  0
  -12.7380  -15.9860   41.0710 H   0  0  0  0  0  0  0  0  0  0  0  0
  -11.1140  -15.4580   39.2010 H   0  0  0  0  0  0  0  0  0  0  0  0
  -15.0740  -17.5170   40.9570 N   0  0  0  0  0  0  0  0  0  0  0  0
  -16.5460  -17.5890   40.6740 C   0  0  0  0  0  0  0  0  0  0  0  0
  -17.0550  -17.3480   39.2840 O   0  0  0  0  0  0  0  0  0  0  0  0
  -17.5080  -17.9010   41.7820 N   0  0  0  0  0  0  0  0  0  0  0  0
  -14.7400  -17.6750   41.8690 H   0  0  0  0  0  0  0  0  0  0  0  0
  -17.1740  -18.0590   42.6940 H   0  0  0  0  0  0  0  0  0  0  0  0
  -18.9790  -17.9730   41.4990 C   0  0  0  0  0  0  0  0  0  0  0  0
  -19.4470  -18.9220   41.3360 H   0  0  0  0  0  0  0  0  0  0  0  0
  -20.0290  -18.0240   41.2970 H   0  0  0  0  0  0  0  0  0  0  0  0
  -19.7950  -16.7160   41.4450 C   0  0  0  0  0  3  0  0  0  0  0  0
  -20.5010  -16.5020   42.2200 H   0  0  0  0  0  0  0  0  0  0  0  0
  -20.3770  -15.8180   41.4060 H   0  0  0  0  0  0  0  0  0  0  0  0
  -19.6200  -15.7570   40.3040 N   0  0  0  0  0 15  0  0  0  0  0  0
  -19.7950  -16.2320   38.8920 C   0  0  0  0  0  2  0  0  0  0  0  0
  -19.6200  -15.2740   37.7520 C   0  0  0  0  0  2  0  0  0  0  0  0
  -19.2710  -13.8400   38.0230 O   0  0  0  0  0  1  0  0  0  0  0  0
  -19.0970  -13.3650   39.4350 C   0  0  0  0  0  3  0  0  0  0  0  0
  -19.2710  -14.3240   40.5760 C   0  0  0  0  0  2  0  0  0  0  0  0
  -20.0440  -17.2540   38.6980 H   0  0  0  0  0  0  0  0  0  0  0  0
  -19.9190  -16.5710   37.8850 H   0  0  0  0  0  0  0  0  0  0  0  0
  -19.7450  -15.6120   36.7440 H   0  0  0  0  0  0  0  0  0  0  0  0
  -19.4960  -14.5900   36.9380 H   0  0  0  0  0  0  0  0  0  0  0  0
  -18.8480  -12.3430   39.6290 H   0  0  0  0  0  0  0  0  0  0  0  0
  -18.9730  -13.0270   40.4430 H   0  0  0  0  0  0  0  0  0  0  0  0
  -19.1470  -13.9850   41.5830 H   0  0  0  0  0  0  0  0  0  0  0  0
  -19.3960  -15.0070   41.3890 H   0  0  0  0  0  0  0  0  0  0  0  0
  -11.2260  -16.2660   36.5270 N   0  0  0  0  0  0  0  0  0  0  0  0
  -11.6930  -15.5090   35.3190 C   0  0  0  0  0  0  0  0  0  0  0  0
  -10.8100  -15.4060   34.1120 C   0  0  0  0  0  0  0  0  0  0  0  0
  -11.2770  -14.6490   32.9040 C   0  0  0  0  0  0  0  0  0  0  0  0
  -12.6270  -13.9960   32.9030 N   0  0  0  0  0  0  0  0  0  0  0  0
  -13.5110  -14.1000   34.1110 C   0  0  0  0  0  0  0  0  0  0  0  0
  -14.8610  -13.4470   34.1110 N   0  0  0  0  0  0  0  0  0  0  0  0
  -13.0440  -14.8570   35.3190 N   0  0  0  0  0  0  0  0  0  0  0  0
   -9.8800  -15.8550   34.1120 H   0  0  0  0  0  0  0  0  0  0  0  0
  -10.6690  -14.5770   32.0730 H   0  0  0  0  0  0  0  0  0  0  0  0
  -15.4410  -13.5150   34.9040 H   0  0  0  0  0  0  0  0  0  0  0  0
  -15.3280  -12.6910   32.9030 C   0  0  0  0  0  0  0  0  0  0  0  0
  -15.8940  -11.3100   33.0550 C   0  0  0  0  0  0  0  0  0  0  0  0
  -16.3610  -10.5530   31.8470 C   0  0  0  0  0  0  0  0  0  0  0  0
  -16.2620  -11.1770   30.4870 C   0  0  0  0  0  0  0  0  0  0  0  0
  -15.6970  -12.5580   30.3350 C   0  0  0  0  0  0  0  0  0  0  0  0
  -15.2300  -13.3150   31.5430 C   0  0  0  0  0  0  0  0  0  0  0  0
  -15.9620  -10.8800   33.9910 H   0  0  0  0  0  0  0  0  0  0  0  0
  -16.7500   -9.6030   31.9520 H   0  0  0  0  0  0  0  0  0  0  0  0
  -15.6290  -12.9880   29.3980 H   0  0  0  0  0  0  0  0  0  0  0  0
  -14.8400  -14.2650   31.4380 H   0  0  0  0  0  0  0  0  0  0  0  0
  -16.7290  -10.4200   29.2790 C   0  0  0  0  0  0  0  0  0  0  0  0
  -16.4890   -9.3830   29.1710 H   0  0  0  0  0  0  0  0  0  0  0  0
  -17.0630   -9.8810   28.4170 H   0  0  0  0  0  0  0  0  0  0  0  0
  -17.5340  -11.1180   28.2220 S   0  0  1  0  0  0  0  0  0  0  0  0
  -16.3780  -11.0100   27.2720 O   0  0  0  0  0  0  0  0  0  0  0  0
  -18.6890  -11.2250   29.1720 O   0  0  0  0  0  0  0  0  0  0  0  0
  -18.3380  -11.8150   27.1650 C   0  0  0  0  0  0  0  0  0  0  0  0
  -17.9110  -11.9970   26.2010 H   0  0  0  0  0  0  0  0  0  0  0  0
  -19.3390  -12.1300   27.3750 H   0  0  0  0  0  0  0  0  0  0  0  0
  -18.9120  -12.3120   26.4110 H   0  0  0  0  0  0  0  0  0  0  0  0
   -9.7970  -16.7100   36.6280 C   0  0  0  0  0  0  0  0  0  0  0  0
   -9.4640  -17.2500   37.4900 H   0  0  0  0  0  0  0  0  0  0  0  0
   -9.1100  -16.4870   35.8380 H   0  0  0  0  0  0  0  0  0  0  0  0
   -8.7770  -17.0270   36.6990 H   0  0  0  0  0  0  0  0  0  0  0  0
  1  6  1  0
  2  1  2  0
  2  3  1  0
  3  4  2  0
  4  5  1  0
  4 11  1  0
  5  9  1  0
  6 10  1  0
  6  5  2  0
  7  2  1  0
  8  3  1  0
 11 15  1  0
 12 11  1  0
 12 14  1  0
 13 12  2  0
 14 16  1  0
 17 14  1  0
 18 17  1  0
 19 17  1  0
 20 17  1  0
 20 21  1  0
 22 20  1  0
 26 27  1  0
 27 33  1  0
 27 34  1  0
 28 36  1  0
 28 35  1  0
 29 24  1  0
 30 24  1  0
 31 25  1  0
 32 25  1  0
 37 68  1  0
 37  1  1  0
 38 44  2  0
 38 37  1  0
 39 45  1  0
 39 38  1  0
 40 39  2  0
 41 40  1  0
 41 42  2  0
 42 44  1  0
 43 42  1  0
 43 47  1  0
 46 40  1  0
 48 49  1  0
 48 43  1  0
 49 54  1  0
 50 55  1  0
 50 49  2  0
 51 50  1  0
 52 51  2  0
 52 53  1  0
 53 48  2  0
 56 52  1  0
 57 53  1  0
 58 51  1  0
 59 58  1  0
 60 58  1  0
 61 63  2  0
 61 58  1  0
 62 61  2  0
 64 66  1  0
 64 61  1  0
 65 64  1  0
 67 64  1  0
 68 71  1  0
 68 69  1  0
 70 68  1  0
M  END
>  <minimizedAffinity>  (224) 
-9.26710796

$$$$

     RDKit          3D

 29 30  0  0  0  0  0  0  0  0999 V2000
  -13.4470  -15.5980   35.5060 C   0  0  0  0  0  0  0  0  0  0  0  0
  -13.5110  -16.2610   36.8500 C   0  0  0  0  0  0  0  0  0  0  0  0
  -12.2490  -16.6910   37.5350 C   0  0  0  0  0  0  0  0  0  0  0  0
  -10.9210  -16.4590   36.8770 C   0  0  0  0  0  0  0  0  0  0  0  0
  -10.8560  -15.7960   35.5330 C   0  0  0  0  0  0  0  0  0  0  0  0
  -12.1190  -15.3650   34.8480 C   0  0  0  0  0  0  0  0  0  0  0  0
  -14.4250  -16.4210   37.3030 H   0  0  0  0  0  0  0  0  0  0  0  0
  -12.2930  -17.1470   38.4600 H   0  0  0  0  0  0  0  0  0  0  0  0
   -9.9430  -15.6360   35.0800 H   0  0  0  0  0  0  0  0  0  0  0  0
   -9.6580  -16.8900   37.5630 C   0  0  0  0  0  0  0  0  0  0  0  0
   -9.4560  -18.3310   37.9260 C   0  0  0  0  0  0  0  0  0  0  0  0
   -8.1940  -18.7610   38.6120 C   0  0  0  0  0  0  0  0  0  0  0  0
   -7.1330  -17.7510   38.9340 N   0  0  0  0  0  0  0  0  0  0  0  0
   -7.3350  -16.3100   38.5700 C   0  0  0  0  0  0  0  0  0  0  0  0
   -8.5970  -15.8790   37.8840 C   0  0  0  0  0  0  0  0  0  0  0  0
  -10.1860  -19.0260   37.7050 H   0  0  0  0  0  0  0  0  0  0  0  0
   -8.0550  -19.7530   38.8620 H   0  0  0  0  0  0  0  0  0  0  0  0
   -6.6050  -15.6140   38.7910 H   0  0  0  0  0  0  0  0  0  0  0  0
   -8.7360  -14.8870   37.6340 H   0  0  0  0  0  0  0  0  0  0  0  0
  -12.0540  -14.7020   33.5040 C   0  0  0  0  0  0  0  0  0  0  0  0
  -13.0660  -13.6590   33.1320 N   0  0  0  0  0  0  0  0  0  0  0  0
  -10.9770  -15.0820   32.5310 O   0  0  0  0  0  0  0  0  0  0  0  0
  -13.7730  -13.4100   33.7710 H   0  0  0  0  0  0  0  0  0  0  0  0
  -13.0230  -13.2240   32.2500 H   0  0  0  0  0  0  0  0  0  0  0  0
  -14.7090  -15.1670   34.8200 O   0  0  0  0  0  0  0  0  0  0  0  0
  -16.0420  -15.5270   35.4070 C   0  0  0  0  0  0  0  0  0  0  0  0
  -16.0920  -16.0920   36.3150 H   0  0  0  0  0  0  0  0  0  0  0  0
  -16.9430  -15.2200   34.9180 H   0  0  0  0  0  0  0  0  0  0  0  0
  -16.9920  -15.7850   35.8260 H   0  0  0  0  0  0  0  0  0  0  0  0
  1  2  1  0
  2  7  1  0
  2  3  2  0
  3  8  1  0
  4  3  1  0
  4 10  1  0
  5  4  2  0
  6  1  2  0
  6  5  1  0
  9  5  1  0
 10 15  2  0
 10 11  1  0
 11 12  2  0
 12 17  1  0
 12 13  1  0
 14 18  1  0
 14 13  2  0
 15 14  1  0
 16 11  1  0
 19 15  1  0
 20  6  1  0
 21 20  1  0
 21 23  1  0
 22 20  2  0
 24 21  1  0
 25 26  1  0
 25  1  1  0
 26 29  1  0
 26 27  1  0
 28 26  1  0
M  END
>  <minimizedAffinity>  (225) 
-7.52965975

$$$$

     RDKit          3D

 33 36  0  0  0  0  0  0  0  0999 V2000
   -7.1300  -16.8400   38.4640 N   0  0  0  0  0  0  0  0  0  0  0  0
   -8.5340  -16.6210   37.9860 C   0  0  0  0  0  0  0  0  0  0  0  0
   -8.9350  -15.9840   36.6880 N   0  0  0  0  0  0  0  0  0  0  0  0
  -10.4330  -15.9690   36.6210 C   0  0  0  0  0  0  0  0  0  0  0  0
  -10.9590  -16.5970   37.8780 C   0  0  0  0  0  0  0  0  0  0  0  0
   -9.7850  -16.9990   38.7210 S   0  0  0  0  0  0  0  0  0  0  0  0
   -6.9680  -17.2680   39.3340 H   0  0  0  0  0  0  0  0  0  0  0  0
   -6.3700  -16.5560   37.9060 H   0  0  0  0  0  0  0  0  0  0  0  0
  -12.4050  -16.7880   38.2300 C   0  0  0  0  0  0  0  0  0  0  0  0
  -13.3320  -17.4510   37.2560 C   0  0  0  0  0  0  0  0  0  0  0  0
  -14.7780  -17.6420   37.6070 C   0  0  0  0  0  0  0  0  0  0  0  0
  -15.2960  -17.1700   38.9340 C   0  0  0  0  0  0  0  0  0  0  0  0
  -16.7410  -17.3610   39.2860 N   0  0  0  0  0  0  0  0  0  0  0  0
  -17.2590  -16.8890   40.6120 C   0  0  0  0  0  0  0  0  0  0  0  0
  -16.3310  -16.2260   41.5860 C   0  0  0  0  0  0  0  0  0  0  0  0
  -14.8860  -16.0350   41.2340 C   0  0  0  0  0  0  0  0  0  0  0  0
  -14.3680  -16.5070   39.9080 C   0  0  0  0  0  0  0  0  0  0  0  0
  -12.9230  -16.3160   39.5560 N   0  0  0  0  0  0  0  0  0  0  0  0
  -12.9760  -17.7760   36.3430 H   0  0  0  0  0  0  0  0  0  0  0  0
  -15.4160  -18.0990   36.9370 H   0  0  0  0  0  0  0  0  0  0  0  0
  -18.2540  -17.0210   40.8540 H   0  0  0  0  0  0  0  0  0  0  0  0
  -16.6880  -15.9010   42.4990 H   0  0  0  0  0  0  0  0  0  0  0  0
  -14.2480  -15.5780   41.9050 H   0  0  0  0  0  0  0  0  0  0  0  0
  -11.2610  -15.4230   35.4960 C   0  0  0  0  0  0  0  0  0  0  0  0
  -10.8250  -15.6310   34.0750 C   0  0  0  0  0  0  0  0  0  0  0  0
  -11.6520  -15.0850   32.9490 C   0  0  0  0  0  0  0  0  0  0  0  0
  -12.9150  -14.3300   33.2440 C   0  0  0  0  0  0  0  0  0  0  0  0
  -13.3500  -14.1220   34.6650 C   0  0  0  0  0  0  0  0  0  0  0  0
  -12.5230  -14.6680   35.7900 N   0  0  0  0  0  0  0  0  0  0  0  0
   -9.9570  -16.1500   33.8720 H   0  0  0  0  0  0  0  0  0  0  0  0
  -11.3530  -15.2280   31.9720 H   0  0  0  0  0  0  0  0  0  0  0  0
  -13.4840  -13.9540   32.4700 H   0  0  0  0  0  0  0  0  0  0  0  0
  -14.2190  -13.6030   34.8670 H   0  0  0  0  0  0  0  0  0  0  0  0
  1  7  1  0
  2  1  1  0
  2  6  1  0
  3  2  2  0
  4  3  1  0
  4  5  2  0
  5  9  1  0
  5  6  1  0
  8  1  1  0
  9 18  1  0
 10 11  1  0
 10  9  2  0
 11 12  2  0
 12 13  1  0
 12 17  1  0
 13 14  2  0
 14 21  1  0
 14 15  1  0
 15 22  1  0
 16 15  2  0
 16 23  1  0
 17 16  1  0
 18 17  2  0
 19 10  1  0
 20 11  1  0
 24 29  1  0
 24  4  1  0
 25 24  2  0
 26 27  2  0
 26 25  1  0
 27 28  1  0
 28 33  1  0
 28 29  2  0
 30 25  1  0
 31 26  1  0
 32 27  1  0
M  END
>  <minimizedAffinity>  (226) 
-8.38353348

$$$$

     RDKit          3D

 32 33  0  0  0  0  0  0  0  0999 V2000
  -14.3870  -14.9460   34.8400 C   0  0  0  0  0  0  0  0  0  0  0  0
  -13.8000  -14.2190   33.6670 C   0  0  0  0  0  0  0  0  0  0  0  0
  -12.3120  -14.1670   33.4850 N   0  0  0  0  0  0  0  0  0  0  0  0
  -11.4110  -14.8410   34.4770 C   0  0  0  0  0  0  0  0  0  0  0  0
  -11.9990  -15.5680   35.6500 C   0  0  0  0  0  0  0  0  0  0  0  0
  -13.4870  -15.6210   35.8320 C   0  0  0  0  0  0  0  0  0  0  0  0
  -14.4200  -13.7550   32.9840 H   0  0  0  0  0  0  0  0  0  0  0  0
  -10.3880  -14.8050   34.3520 H   0  0  0  0  0  0  0  0  0  0  0  0
  -13.8910  -16.1210   36.6390 H   0  0  0  0  0  0  0  0  0  0  0  0
  -16.7350  -13.8870   34.4970 N   0  0  0  0  0  0  0  0  0  0  0  0
  -15.8760  -14.9990   35.0210 C   0  0  0  0  0  0  0  0  0  0  0  0
  -16.5040  -16.1630   35.7270 O   0  0  0  0  0  0  0  0  0  0  0  0
  -16.3220  -13.1220   34.0340 H   0  0  0  0  0  0  0  0  0  0  0  0
  -18.2230  -13.9390   34.6790 C   0  0  0  0  0  0  0  0  0  0  0  0
  -18.8360  -13.1460   34.3040 H   0  0  0  0  0  0  0  0  0  0  0  0
  -18.6710  -14.7700   35.1820 H   0  0  0  0  0  0  0  0  0  0  0  0
  -19.2840  -13.9770   34.8080 H   0  0  0  0  0  0  0  0  0  0  0  0
  -11.0980  -16.2420   36.6420 C   0  0  0  0  0  0  0  0  0  0  0  0
   -9.6520  -16.4670   36.3100 C   0  0  0  0  0  0  0  0  0  0  0  0
  -11.4730  -16.5520   37.5520 H   0  0  0  0  0  0  0  0  0  0  0  0
   -9.2770  -16.1570   35.4000 H   0  0  0  0  0  0  0  0  0  0  0  0
   -8.7510  -17.1410   37.3020 C   0  0  0  0  0  0  0  0  0  0  0  0
   -8.8990  -18.6090   37.5720 C   0  0  0  0  0  0  0  0  0  0  0  0
   -7.9980  -19.2840   38.5640 C   0  0  0  0  0  0  0  0  0  0  0  0
   -6.9500  -18.4900   39.2860 C   0  0  0  0  0  0  0  0  0  0  0  0
   -6.8020  -17.0220   39.0160 C   0  0  0  0  0  0  0  0  0  0  0  0
   -7.7030  -16.3480   38.0240 C   0  0  0  0  0  0  0  0  0  0  0  0
   -7.5550  -14.8790   37.7540 Cl  0  0  0  0  0  0  0  0  0  0  0  0
   -9.6200  -19.1550   37.0750 H   0  0  0  0  0  0  0  0  0  0  0  0
   -8.0990  -20.2940   38.7500 H   0  0  0  0  0  0  0  0  0  0  0  0
   -6.3300  -18.9540   39.9680 H   0  0  0  0  0  0  0  0  0  0  0  0
   -6.0810  -16.4760   39.5120 H   0  0  0  0  0  0  0  0  0  0  0  0
  1 11  1  0
  1  6  1  0
  2  1  2  0
  3  2  1  0
  3  4  2  0
  4  5  1  0
  5  6  2  0
  5 18  1  0
  6  9  1  0
  7  2  1  0
  8  4  1  0
 10 14  1  0
 10 11  1  0
 11 12  2  0
 13 10  1  0
 14 17  1  0
 14 16  1  0
 15 14  1  0
 18 20  1  0
 19 18  2  0
 19 22  1  0
 21 19  1  0
 22 23  2  0
 22 27  1  0
 23 24  1  0
 24 30  1  0
 24 25  2  0
 25 31  1  0
 26 25  1  0
 26 32  1  0
 27 26  2  0
 28 27  1  0
 29 23  1  0
M  END
>  <minimizedAffinity>  (227) 
-7.90165138

$$$$

     RDKit          3D

 33 35  0  0  1  0  0  0  0  0999 V2000
  -13.1910  -16.7770   38.5100 C   0  0  0  0  0  0  0  0  0  0  0  0
  -13.7920  -18.1130   38.8370 N   0  0  0  0  0  0  0  0  0  0  0  0
  -13.6000  -15.9170   38.9060 H   0  0  0  0  0  0  0  0  0  0  0  0
  -14.9870  -18.1960   39.7390 N   0  0  0  0  0  0  0  0  0  0  0  0
  -16.2930  -17.5950   39.3110 C   0  0  0  0  0  3  0  0  0  0  0  0
  -16.4030  -16.9100   37.9810 N   0  0  0  0  0  0  0  0  0  0  0  0
  -17.7090  -16.3090   37.5530 C   0  0  0  0  0  0  0  0  0  0  0  0
  -18.9040  -16.3920   38.4550 N   0  0  0  0  0  2  0  0  0  0  0  0
  -18.7940  -17.0760   39.7850 C   0  0  0  0  0  0  0  0  0  0  0  0
  -19.7930  -17.3120   40.8790 N   0  0  0  0  0  0  0  0  0  0  0  0
  -19.1050  -18.0590   41.9830 N   0  0  0  0  0  0  0  0  0  0  0  0
  -17.6810  -18.2850   41.5720 C   0  0  0  0  0  0  0  0  0  0  0  0
  -17.4880  -17.6780   40.2130 C   0  0  0  0  0  0  0  0  0  0  0  0
  -14.9150  -18.6450   40.6120 H   0  0  0  0  0  0  0  0  0  0  0  0
  -17.7850  -15.8380   36.6380 H   0  0  0  0  0  0  0  0  0  0  0  0
  -20.7350  -17.0260   40.8730 H   0  0  0  0  0  0  0  0  0  0  0  0
  -16.9590  -18.7730   42.1260 H   0  0  0  0  0  0  0  0  0  0  0  0
   -9.5390  -17.3380   37.0610 C   0  0  0  0  0  0  0  0  0  0  0  0
  -10.7340  -17.4220   37.9630 C   0  0  0  0  0  0  0  0  0  0  0  0
  -11.9960  -16.6930   37.6070 C   0  0  0  0  0  0  0  0  0  0  0  0
  -12.0630  -15.8800   36.3490 C   0  0  0  0  0  0  0  0  0  0  0  0
  -10.8680  -15.7960   35.4460 C   0  0  0  0  0  0  0  0  0  0  0  0
   -9.6060  -16.5250   35.8020 C   0  0  0  0  0  0  0  0  0  0  0  0
  -10.6880  -17.9810   38.8300 H   0  0  0  0  0  0  0  0  0  0  0  0
  -12.9310  -15.3790   36.1030 H   0  0  0  0  0  0  0  0  0  0  0  0
  -10.9140  -15.2370   34.5800 H   0  0  0  0  0  0  0  0  0  0  0  0
   -8.4110  -16.4410   34.8990 O   0  0  0  0  0  0  0  0  0  0  0  0
   -7.6220  -16.8970   35.1220 H   0  0  0  0  0  0  0  0  0  0  0  0
   -8.2770  -18.0670   37.4170 O   0  0  0  0  0  0  0  0  0  0  0  0
   -8.1410  -18.7180   38.7620 C   0  0  0  0  0  0  0  0  0  0  0  0
   -8.9440  -18.6620   39.4670 H   0  0  0  0  0  0  0  0  0  0  0  0
   -7.2410  -19.2370   39.0150 H   0  0  0  0  0  0  0  0  0  0  0  0
   -8.0440  -19.1820   39.7210 H   0  0  0  0  0  0  0  0  0  0  0  0
  1  2  2  0
  1  3  1  0
  2  4  1  0
  4 14  1  0
  5  4  1  0
  5 13  1  0
  6  5  1  0
  7  6  2  0
  7  8  1  0
  8  9  1  0
  9 13  2  0
  9 10  1  0
 10 11  1  0
 12 11  2  0
 12 17  1  0
 13 12  1  0
 15  7  1  0
 16 10  1  0
 18 29  1  0
 18 19  1  0
 19 24  1  0
 20 19  2  0
 20  1  1  0
 21 20  1  0
 22 23  1  0
 22 21  2  0
 23 18  2  0
 25 21  1  0
 26 22  1  0
 27 28  1  0
 27 23  1  0
 29 30  1  0
 30 32  1  0
 30 31  1  0
 30 33  1  0
M  END
>  <minimizedAffinity>  (228) 
-7.74111938

$$$$

     RDKit          3D

 59 57  0  0  0  0  0  0  0  0999 V2000
  -15.7330  -14.7850   35.2510 C   0  0  0  0  0  0  0  0  0  0  0  0
  -16.7990  -14.0210   34.5220 C   0  0  0  0  0  0  0  0  0  0  0  0
  -18.0190  -13.9820   35.3920 N   0  0  0  0  0  0  0  0  0  0  0  0
  -17.7090  -14.7220   36.6600 C   0  0  0  0  0  0  0  0  0  0  0  0
  -16.2960  -15.2190   36.5730 N   0  0  0  0  0  0  0  0  0  0  0  0
  -18.3540  -14.8650   37.4530 H   0  0  0  0  0  0  0  0  0  0  0  0
  -15.5730  -16.0090   37.6220 C   0  0  0  0  0  2  0  0  0  0  0  0
  -14.8390  -15.3020   38.7220 C   0  0  0  0  0  2  0  0  0  0  0  0
  -14.1150  -16.0930   39.7710 C   0  0  0  0  0  2  0  0  0  0  0  0
  -14.1260  -17.5920   39.7190 N   0  0  0  0  0  2  0  0  0  0  0  0
  -14.8600  -18.2990   38.6190 C   0  0  0  0  0  3  0  0  0  0  0  0
  -15.5830  -17.5090   37.5700 C   0  0  0  0  0  2  0  0  0  0  0  0
  -15.0570  -16.5740   38.3700 H   0  0  0  0  0  0  0  0  0  0  0  0
  -14.8310  -14.2320   38.7580 H   0  0  0  0  0  0  0  0  0  0  0  0
  -14.3150  -14.7970   39.5070 H   0  0  0  0  0  0  0  0  0  0  0  0
  -13.5920  -15.5880   40.5550 H   0  0  0  0  0  0  0  0  0  0  0  0
  -13.5990  -16.6580   40.5190 H   0  0  0  0  0  0  0  0  0  0  0  0
  -13.6340  -18.1300   40.4320 H   0  0  0  0  0  0  0  0  0  0  0  0
  -14.8670  -19.3690   38.5830 H   0  0  0  0  0  0  0  0  0  0  0  0
  -15.3830  -18.8050   37.8340 H   0  0  0  0  0  0  0  0  0  0  0  0
  -16.1070  -18.0130   36.7860 H   0  0  0  0  0  0  0  0  0  0  0  0
  -16.0990  -16.9430   36.8220 H   0  0  0  0  0  0  0  0  0  0  0  0
  -16.6660  -13.4040   33.1610 C   0  0  0  0  0  0  0  0  0  0  0  0
  -17.6550  -13.7410   32.0850 C   0  0  0  0  0  0  0  0  0  0  0  0
  -17.5220  -13.1240   30.7250 C   0  0  0  0  0  0  0  0  0  0  0  0
  -16.4010  -12.1700   30.4400 C   0  0  0  0  0  0  0  0  0  0  0  0
  -16.2680  -11.5540   29.0780 F   0  0  0  0  0  0  0  0  0  0  0  0
  -15.4110  -11.8330   31.5160 C   0  0  0  0  0  0  0  0  0  0  0  0
  -15.5440  -12.4500   32.8760 C   0  0  0  0  0  0  0  0  0  0  0  0
  -18.4260  -14.3980   32.2810 H   0  0  0  0  0  0  0  0  0  0  0  0
  -18.2030  -13.3570   29.9840 H   0  0  0  0  0  0  0  0  0  0  0  0
  -14.6400  -11.1760   31.3190 H   0  0  0  0  0  0  0  0  0  0  0  0
  -14.8630  -12.2170   33.6160 H   0  0  0  0  0  0  0  0  0  0  0  0
  -11.7790  -15.0960   35.1280 C   0  0  0  0  0  0  0  0  0  0  0  0
  -11.5790  -15.6290   33.7400 N   0  0  0  0  0  0  0  0  0  0  0  0
  -12.7640  -15.8800   32.8560 C   0  0  0  0  0  3  0  0  0  0  0  0
  -14.1490  -15.5990   33.3600 C   0  0  0  0  0  0  0  0  0  0  0  0
  -14.3490  -15.0660   34.7480 C   0  0  0  0  0  0  0  0  0  0  0  0
  -13.1640  -14.8140   35.6320 N   0  0  0  0  0  0  0  0  0  0  0  0
  -12.6270  -16.2470   31.9010 H   0  0  0  0  0  0  0  0  0  0  0  0
  -14.9650  -15.7720   32.7510 H   0  0  0  0  0  0  0  0  0  0  0  0
  -10.5940  -14.8440   36.0120 O   0  0  0  0  0  0  0  0  0  0  0  0
   -8.4980  -18.2930   38.0020 C   0  0  0  0  0  3  0  0  0  0  0  0
   -9.0600  -17.1770   38.8320 C   0  0  0  0  0  0  0  0  0  0  0  0
   -9.7580  -16.0280   38.1690 C   0  0  0  0  0  0  0  0  0  0  0  0
   -9.8950  -15.9940   36.6760 C   0  0  0  0  0  0  0  0  0  0  0  0
   -9.3330  -17.1090   35.8450 C   0  0  0  0  0  0  0  0  0  0  0  0
   -8.6340  -18.2590   36.5090 C   0  0  0  0  0  0  0  0  0  0  0  0
   -8.9650  -17.2010   39.8600 H   0  0  0  0  0  0  0  0  0  0  0  0
  -10.1450  -15.2600   38.7400 H   0  0  0  0  0  0  0  0  0  0  0  0
   -9.4270  -17.0860   34.8180 H   0  0  0  0  0  0  0  0  0  0  0  0
   -8.2480  -19.0270   35.9370 H   0  0  0  0  0  0  0  0  0  0  0  0
   -7.7990  -19.4430   38.6650 C   0  0  0  0  0  3  0  0  0  0  0  0
   -8.3560  -20.3060   38.9670 H   0  0  0  0  0  0  0  0  0  0  0  0
   -8.8540  -19.4850   38.4930 H   0  0  0  0  0  0  0  0  0  0  0  0
   -6.3200  -19.3840   38.9060 C   0  0  0  0  0  0  0  0  0  0  0  0
   -5.7620  -18.5210   38.6050 H   0  0  0  0  0  0  0  0  0  0  0  0
   -5.8210  -20.2040   39.3790 H   0  0  0  0  0  0  0  0  0  0  0  0
   -5.2640  -19.3410   39.0780 H   0  0  0  0  0  0  0  0  0  0  0  0
  1  5  1  0
  2  1  2  0
  2  3  1  0
  3  4  2  0
  4  6  1  0
  5  4  1  0
  5  7  1  0
  7 13  1  0
  8 14  1  0
  8 15  1  0
  9 17  1  0
  9 16  1  0
 10 18  1  0
 11 10  1  0
 19 11  1  0
 20 11  1  0
 21 12  1  0
 22 12  1  0
 23  2  1  0
 24 30  1  0
 24 23  2  0
 25 24  1  0
 26 25  2  0
 26 28  1  0
 27 26  1  0
 28 29  2  0
 29 23  1  0
 29 33  1  0
 31 25  1  0
 32 28  1  0
 34 39  2  0
 34 42  1  0
 35 34  2  0
 36 37  1  0
 36 35  1  0
 37 38  2  0
 38  1  1  0
 38 39  1  0
 40 36  1  0
 41 37  1  0
 42 46  1  0
 43 44  1  0
 44 49  1  0
 45 50  1  0
 45 44  2  0
 46 45  1  0
 47 48  1  0
 47 46  2  0
 48 43  2  0
 51 47  1  0
 52 48  1  0
 53 56  1  0
 53 54  1  0
 55 53  1  0
 56 59  1  0
 56 58  1  0
 57 56  1  0
M  END
>  <minimizedAffinity>  (229) 
-8.89380741

$$$$

     RDKit          3D

 35 38  0  0  0  0  0  0  0  0999 V2000
  -10.3480  -16.5420   36.5650 C   0  0  0  0  0  0  0  0  0  0  0  0
   -9.0170  -16.9870   36.0360 N   0  0  0  0  0  0  0  0  0  0  0  0
   -8.2810  -17.6720   37.1500 N   0  0  0  0  0  0  0  0  0  0  0  0
   -9.1580  -17.6500   38.3670 C   0  0  0  0  0  0  0  0  0  0  0  0
  -10.4360  -16.9510   38.0050 C   0  0  0  0  0  0  0  0  0  0  0  0
   -7.3810  -18.0670   37.0920 H   0  0  0  0  0  0  0  0  0  0  0  0
   -8.9240  -18.0450   39.2900 H   0  0  0  0  0  0  0  0  0  0  0  0
  -11.5960  -16.7050   38.9230 C   0  0  0  0  0  0  0  0  0  0  0  0
  -11.4210  -15.8470   40.1400 C   0  0  0  0  0  0  0  0  0  0  0  0
  -12.5820  -15.6010   41.0580 C   0  0  0  0  0  0  0  0  0  0  0  0
  -13.9180  -16.2130   40.7580 C   0  0  0  0  0  0  0  0  0  0  0  0
  -15.0790  -15.9670   41.6750 N   0  0  0  0  0  0  0  0  0  0  0  0
  -16.4150  -16.5790   41.3750 C   0  0  0  0  0  0  0  0  0  0  0  0
  -16.5900  -17.4370   40.1570 C   0  0  0  0  0  0  0  0  0  0  0  0
  -15.4290  -17.6830   39.2400 C   0  0  0  0  0  0  0  0  0  0  0  0
  -14.0930  -17.0710   39.5400 C   0  0  0  0  0  0  0  0  0  0  0  0
  -12.9330  -17.3170   38.6220 N   0  0  0  0  0  0  0  0  0  0  0  0
  -10.5020  -15.4260   40.3470 H   0  0  0  0  0  0  0  0  0  0  0  0
  -12.4610  -15.0110   41.8960 H   0  0  0  0  0  0  0  0  0  0  0  0
  -17.2140  -16.4100   42.0060 H   0  0  0  0  0  0  0  0  0  0  0  0
  -17.5100  -17.8580   39.9510 H   0  0  0  0  0  0  0  0  0  0  0  0
  -15.5500  -18.2730   38.4020 H   0  0  0  0  0  0  0  0  0  0  0  0
  -13.8990  -15.1700   35.4430 C   0  0  0  0  0  0  0  0  0  0  0  0
  -13.5220  -14.3600   34.2370 C   0  0  0  0  0  0  0  0  0  0  0  0
  -12.0870  -14.2770   33.8080 C   0  0  0  0  0  0  0  0  0  0  0  0
  -11.0290  -15.0040   34.5840 C   0  0  0  0  0  0  0  0  0  0  0  0
  -11.4060  -15.8140   35.7890 C   0  0  0  0  0  0  0  0  0  0  0  0
  -12.8410  -15.8970   36.2180 N   0  0  0  0  0  0  0  0  0  0  0  0
  -14.2500  -13.8590   33.7030 H   0  0  0  0  0  0  0  0  0  0  0  0
  -11.8280  -13.7200   32.9790 H   0  0  0  0  0  0  0  0  0  0  0  0
  -10.0420  -14.9470   34.2890 H   0  0  0  0  0  0  0  0  0  0  0  0
  -15.3340  -15.2520   35.8710 C   0  0  0  0  0  0  0  0  0  0  0  0
  -16.0890  -14.7340   35.3180 H   0  0  0  0  0  0  0  0  0  0  0  0
  -15.6020  -15.8300   36.7310 H   0  0  0  0  0  0  0  0  0  0  0  0
  -16.3570  -15.3110   36.1770 H   0  0  0  0  0  0  0  0  0  0  0  0
  1  5  1  0
  2  1  2  0
  2  3  1  0
  3  4  1  0
  4  7  1  0
  5  4  2  0
  5  8  1  0
  6  3  1  0
  8  9  1  0
  9 18  1  0
  9 10  2  0
 10 19  1  0
 11 10  1  0
 11 12  1  0
 13 12  2  0
 13 20  1  0
 14 13  1  0
 15 16  1  0
 15 14  2  0
 16 11  2  0
 17  8  2  0
 17 16  1  0
 21 14  1  0
 22 15  1  0
 23 32  1  0
 23 28  1  0
 24 23  2  0
 25 24  1  0
 25 26  2  0
 26 27  1  0
 27 28  2  0
 27  1  1  0
 29 24  1  0
 30 25  1  0
 31 26  1  0
 32 35  1  0
 32 34  1  0
 33 32  1  0
M  END
>  <minimizedAffinity>  (230) 
-8.69737625

$$$$

     RDKit          3D

 41 44  0  0  0  0  0  0  0  0999 V2000
  -11.1550  -15.7370   34.9710 C   0  0  0  0  0  0  0  0  0  0  0  0
  -12.0130  -15.8670   36.1950 C   0  0  0  0  0  0  0  0  0  0  0  0
  -13.4610  -15.4780   36.1390 C   0  0  0  0  0  0  0  0  0  0  0  0
  -14.0500  -14.9600   34.8610 C   0  0  0  0  0  0  0  0  0  0  0  0
  -13.1910  -14.8310   33.6380 C   0  0  0  0  0  0  0  0  0  0  0  0
  -11.7440  -15.2190   33.6930 C   0  0  0  0  0  0  0  0  0  0  0  0
  -11.6080  -16.2230   37.0740 H   0  0  0  0  0  0  0  0  0  0  0  0
  -14.0520  -15.5670   36.9810 H   0  0  0  0  0  0  0  0  0  0  0  0
  -13.5970  -14.4740   32.7580 H   0  0  0  0  0  0  0  0  0  0  0  0
  -11.1530  -15.1300   32.8510 H   0  0  0  0  0  0  0  0  0  0  0  0
  -15.4980  -14.5710   34.8060 N   0  0  0  0  0  0  0  0  0  0  0  0
  -16.4460  -15.0600   35.8600 C   0  0  0  0  0  0  0  0  0  0  0  0
  -17.9130  -14.7560   35.9350 N   0  0  0  0  0  0  0  0  0  0  0  0
  -18.4680  -15.4470   37.1460 C   0  0  0  0  0  0  0  0  0  0  0  0
  -17.3440  -16.1780   37.8180 C   0  0  0  0  0  0  0  0  0  0  0  0
  -16.0940  -15.9390   37.0240 O   0  0  0  0  0  0  0  0  0  0  0  0
  -15.8250  -13.9960   34.0780 H   0  0  0  0  0  0  0  0  0  0  0  0
  -19.4510  -15.4230   37.4610 H   0  0  0  0  0  0  0  0  0  0  0  0
  -17.4500  -17.0030   39.0660 C   0  0  0  0  0  0  0  0  0  0  0  0
  -16.2110  -17.5320   39.7230 C   0  0  0  0  0  0  0  0  0  0  0  0
  -16.3180  -18.3580   40.9720 C   0  0  0  0  0  0  0  0  0  0  0  0
  -17.6650  -18.6530   41.5630 C   0  0  0  0  0  0  0  0  0  0  0  0
  -18.9040  -18.1230   40.9050 C   0  0  0  0  0  0  0  0  0  0  0  0
  -18.7970  -17.2980   39.6570 C   0  0  0  0  0  0  0  0  0  0  0  0
  -15.2840  -17.3290   39.3170 H   0  0  0  0  0  0  0  0  0  0  0  0
  -15.4640  -18.7220   41.4240 H   0  0  0  0  0  0  0  0  0  0  0  0
  -17.7380  -19.2200   42.4210 H   0  0  0  0  0  0  0  0  0  0  0  0
  -19.8310  -18.3270   41.3120 H   0  0  0  0  0  0  0  0  0  0  0  0
  -19.6510  -16.9340   39.2050 H   0  0  0  0  0  0  0  0  0  0  0  0
   -9.7070  -16.1260   35.0270 O   0  0  0  0  0  0  0  0  0  0  0  0
   -7.9420  -17.6900   38.8590 C   0  0  0  0  0  0  0  0  0  0  0  0
   -8.5650  -18.6380   37.8790 C   0  0  0  0  0  0  0  0  0  0  0  0
   -9.1540  -18.1170   36.6020 C   0  0  0  0  0  0  0  0  0  0  0  0
   -9.1190  -16.6470   36.3040 C   0  0  0  0  0  0  0  0  0  0  0  0
   -8.4950  -15.6990   37.2850 C   0  0  0  0  0  0  0  0  0  0  0  0
   -7.9060  -16.2200   38.5620 C   0  0  0  0  0  0  0  0  0  0  0  0
   -7.5370  -18.0480   39.7380 H   0  0  0  0  0  0  0  0  0  0  0  0
   -8.5900  -19.6500   38.0840 H   0  0  0  0  0  0  0  0  0  0  0  0
   -9.5830  -18.7700   35.9270 H   0  0  0  0  0  0  0  0  0  0  0  0
   -8.4700  -14.6870   37.0800 H   0  0  0  0  0  0  0  0  0  0  0  0
   -7.4770  -15.5670   39.2370 H   0  0  0  0  0  0  0  0  0  0  0  0
  1 30  1  0
  1  2  1  0
  2  7  1  0
  3  2  2  0
  3  8  1  0
  4  3  1  0
  5  6  1  0
  5  4  2  0
  6  1  2  0
  9  5  1  0
 10  6  1  0
 11  4  1  0
 11 12  1  0
 12 13  2  0
 12 16  1  0
 13 14  1  0
 14 18  1  0
 14 15  2  0
 15 19  1  0
 16 15  1  0
 17 11  1  0
 19 24  2  0
 19 20  1  0
 20 21  2  0
 21 26  1  0
 21 22  1  0
 22 27  1  0
 23 28  1  0
 23 22  2  0
 24 23  1  0
 25 20  1  0
 29 24  1  0
 30 34  1  0
 31 37  1  0
 32 38  1  0
 32 31  2  0
 33 32  1  0
 34 33  2  0
 34 35  1  0
 35 36  2  0
 36 31  1  0
 36 41  1  0
 39 33  1  0
 40 35  1  0
M  END
>  <minimizedAffinity>  (231) 
-8.78124332

$$$$

     RDKit          3D

 64 63  0  0  1  0  0  0  0  0999 V2000
  -17.5360  -15.1600   36.1170 C   0  0  0  0  0  3  0  0  0  0  0  0
  -18.9930  -15.2140   36.4740 N   0  0  0  0  0  0  0  0  0  0  0  0
  -19.7620  -14.5300   35.3840 C   0  0  0  0  0  0  0  0  0  0  0  0
  -18.7820  -14.0540   34.3530 N   0  0  0  0  0  0  0  0  0  0  0  0
  -17.4070  -14.4430   34.8050 C   0  0  0  0  0  0  0  0  0  0  0  0
  -20.7870  -14.4090   35.3490 H   0  0  0  0  0  0  0  0  0  0  0  0
  -19.1190  -13.3170   33.0890 C   0  0  0  0  0  1  0  0  0  0  0  0
  -19.4360  -11.8520   33.1380 C   0  0  0  0  0  2  0  0  0  0  0  0
  -19.7730  -11.1160   31.8750 C   0  0  0  0  0  2  0  0  0  0  0  0
  -19.7930  -11.8450   30.5640 N   0  0  0  0  0  2  0  0  0  0  0  0
  -19.4760  -13.3100   30.5160 C   0  0  0  0  0  3  0  0  0  0  0  0
  -19.1390  -14.0460   31.7790 C   0  0  0  0  0  2  0  0  0  0  0  0
  -19.3590  -12.7920   32.1890 H   0  0  0  0  0  0  0  0  0  0  0  0
  -19.4220  -11.3320   34.0720 H   0  0  0  0  0  0  0  0  0  0  0  0
  -19.6620  -10.8060   33.1720 H   0  0  0  0  0  0  0  0  0  0  0  0
  -19.9990  -10.0710   31.9090 H   0  0  0  0  0  0  0  0  0  0  0  0
  -20.0130  -10.5900   30.9740 H   0  0  0  0  0  0  0  0  0  0  0  0
  -20.0220  -11.3430   29.7060 H   0  0  0  0  0  0  0  0  0  0  0  0
  -19.4900  -13.8300   29.5810 H   0  0  0  0  0  0  0  0  0  0  0  0
  -19.2500  -14.3550   30.4820 H   0  0  0  0  0  0  0  0  0  0  0  0
  -18.9130  -15.0920   31.7440 H   0  0  0  0  0  0  0  0  0  0  0  0
  -18.8990  -14.5710   32.6800 H   0  0  0  0  0  0  0  0  0  0  0  0
  -13.0240  -17.4170   39.3640 F   0  0  0  0  0  0  0  0  0  0  0  0
  -14.1520  -16.8520   38.5520 C   0  0  0  0  0  0  0  0  0  0  0  0
  -14.3820  -15.3710   38.5150 C   0  0  0  0  0  0  0  0  0  0  0  0
  -15.5100  -14.8060   37.7040 C   0  0  0  0  0  0  0  0  0  0  0  0
  -16.4080  -15.7240   36.9290 C   0  0  0  0  0  0  0  0  0  0  0  0
  -16.1790  -17.2060   36.9660 C   0  0  0  0  0  0  0  0  0  0  0  0
  -15.0500  -17.7700   37.7770 C   0  0  0  0  0  0  0  0  0  0  0  0
  -13.7630  -14.7390   39.0490 H   0  0  0  0  0  0  0  0  0  0  0  0
  -15.6680  -13.7870   37.6780 H   0  0  0  0  0  0  0  0  0  0  0  0
  -16.7970  -17.8370   36.4320 H   0  0  0  0  0  0  0  0  0  0  0  0
  -14.8920  -18.7900   37.8030 H   0  0  0  0  0  0  0  0  0  0  0  0
  -16.1260  -14.1650   34.0760 C   0  0  0  0  0  3  0  0  0  0  0  0
  -15.9320  -12.8540   33.3720 C   0  0  0  0  0  0  0  0  0  0  0  0
  -14.6510  -12.5760   32.6430 C   0  0  0  0  0  0  0  0  0  0  0  0
  -13.5640  -13.6090   32.6180 N   0  0  0  0  0  0  0  0  0  0  0  0
  -13.7570  -14.9190   33.3220 C   0  0  0  0  0  0  0  0  0  0  0  0
  -15.0380  -15.1970   34.0510 N   0  0  0  0  0  0  0  0  0  0  0  0
  -16.6810  -12.1440   33.3890 H   0  0  0  0  0  0  0  0  0  0  0  0
  -14.5180  -11.6750   32.1590 H   0  0  0  0  0  0  0  0  0  0  0  0
  -12.6690  -15.9520   33.2970 O   0  0  0  0  0  0  0  0  0  0  0  0
  -11.5900  -15.9300   34.3390 C   0  0  0  0  0  0  0  0  0  0  0  0
  -10.1590  -16.1420   33.9420 C   0  0  0  0  0  0  0  0  0  0  0  0
   -9.0810  -16.1200   34.9840 C   0  0  0  0  0  0  0  0  0  0  0  0
   -9.4320  -15.8850   36.4230 C   0  0  0  0  0  0  0  0  0  0  0  0
  -10.8640  -15.6720   36.8200 C   0  0  0  0  0  0  0  0  0  0  0  0
  -11.9420  -15.6940   35.7780 C   0  0  0  0  0  0  0  0  0  0  0  0
   -9.9180  -16.3040   32.9530 H   0  0  0  0  0  0  0  0  0  0  0  0
   -8.0960  -16.2660   34.7110 H   0  0  0  0  0  0  0  0  0  0  0  0
  -11.1050  -15.5100   37.8100 H   0  0  0  0  0  0  0  0  0  0  0  0
  -12.9270  -15.5480   36.0520 H   0  0  0  0  0  0  0  0  0  0  0  0
   -8.3540  -15.8620   37.4650 O   0  0  0  0  0  0  0  0  0  0  0  0
   -7.8420  -17.1480   38.0420 C   0  0  0  0  0  0  0  0  0  0  0  0
   -8.3630  -18.4590   37.5320 C   0  0  0  0  0  0  0  0  0  0  0  0
   -7.8510  -19.7450   38.1090 C   0  0  0  0  0  0  0  0  0  0  0  0
   -6.8170  -19.7210   39.1960 C   0  0  0  0  0  0  0  0  0  0  0  0
   -6.2960  -18.4100   39.7060 C   0  0  0  0  0  0  0  0  0  0  0  0
   -6.8080  -17.1240   39.1290 C   0  0  0  0  0  0  0  0  0  0  0  0
   -9.0750  -18.4760   36.7840 H   0  0  0  0  0  0  0  0  0  0  0  0
   -8.2100  -20.6470   37.7590 H   0  0  0  0  0  0  0  0  0  0  0  0
   -6.4650  -20.6060   39.5930 H   0  0  0  0  0  0  0  0  0  0  0  0
   -5.5850  -18.3940   40.4530 H   0  0  0  0  0  0  0  0  0  0  0  0
   -6.4490  -16.2220   39.4790 H   0  0  0  0  0  0  0  0  0  0  0  0
  1  2  1  0
  1 27  1  0
  3  2  2  0
  4  5  2  0
  4  3  1  0
  5  1  1  0
  6  3  1  0
  8 15  1  0
  8 14  1  0
  9 16  1  0
 11 10  1  0
 12 22  1  0
 13  7  1  0
 17  9  1  0
 18 10  1  0
 19 11  1  0
 20 11  1  0
 21 12  1  0
 24 23  1  0
 25 24  1  0
 25 30  1  0
 26 25  2  0
 27 28  2  0
 27 26  1  0
 28 29  1  0
 29 33  1  0
 29 24  2  0
 31 26  1  0
 32 28  1  0
 34  5  1  0
 35 40  1  0
 35 34  1  0
 36 35  2  0
 37 36  1  0
 37 38  2  0
 38 39  2  0
 39 34  1  0
 41 36  1  0
 42 38  1  0
 42 43  1  0
 43 48  1  0
 44 43  2  0
 44 45  1  0
 45 46  2  0
 46 47  1  0
 46 53  1  0
 47 51  1  0
 48 52  1  0
 48 47  2  0
 49 44  1  0
 50 45  1  0
 53 54  1  0
 54 59  1  0
 55 54  2  0
 55 56  1  0
 56 57  2  0
 57 62  1  0
 57 58  1  0
 58 63  1  0
 59 64  1  0
 59 58  2  0
 60 55  1  0
 61 56  1  0
M  END
>  <minimizedAffinity>  (232) 
-7.47345448

$$$$

     RDKit          3D

 52 50  0  0  0  0  0  0  0  0999 V2000
  -14.4010  -16.1010   36.3810 C   0  0  0  0  0  0  0  0  0  0  0  0
  -13.8340  -16.9250   37.4990 C   0  0  0  0  0  0  0  0  0  0  0  0
  -12.3480  -17.0380   37.6680 C   0  0  0  0  0  0  0  0  0  0  0  0
  -11.4290  -16.3270   36.7190 C   0  0  0  0  0  0  0  0  0  0  0  0
  -11.9960  -15.5030   35.6020 C   0  0  0  0  0  0  0  0  0  0  0  0
  -13.4820  -15.3900   35.4330 C   0  0  0  0  0  0  0  0  0  0  0  0
  -14.4660  -17.4150   38.1520 H   0  0  0  0  0  0  0  0  0  0  0  0
  -11.9570  -17.6060   38.4370 H   0  0  0  0  0  0  0  0  0  0  0  0
  -11.3640  -15.0130   34.9490 H   0  0  0  0  0  0  0  0  0  0  0  0
  -14.0500  -14.5660   34.3150 C   0  0  0  0  0  0  0  0  0  0  0  0
  -15.4990  -14.1810   34.3280 C   0  0  0  0  0  0  0  0  0  0  0  0
  -16.0670  -13.3570   33.2110 C   0  0  0  0  0  0  0  0  0  0  0  0
  -15.1840  -12.9170   32.0810 C   0  0  0  0  0  0  0  0  0  0  0  0
  -13.7340  -13.3020   32.0680 C   0  0  0  0  0  0  0  0  0  0  0  0
  -13.1670  -14.1260   33.1850 C   0  0  0  0  0  0  0  0  0  0  0  0
  -16.1070  -14.4840   35.1060 H   0  0  0  0  0  0  0  0  0  0  0  0
  -17.0640  -13.0920   33.2200 H   0  0  0  0  0  0  0  0  0  0  0  0
  -13.1270  -12.9990   31.2900 H   0  0  0  0  0  0  0  0  0  0  0  0
  -12.1700  -14.3910   33.1760 H   0  0  0  0  0  0  0  0  0  0  0  0
  -15.7520  -12.0930   30.9630 C   0  0  0  0  0  0  0  0  0  0  0  0
  -15.2920  -10.6790   30.7660 O   0  0  0  0  0  0  0  0  0  0  0  0
  -16.7780  -12.6830   30.0430 N   0  0  0  0  0  4  0  0  0  0  0  0
  -17.0800  -13.6100   30.1720 H   0  0  0  0  0  0  0  0  0  0  0  0
  -17.3460  -11.8590   28.9250 C   0  0  0  0  0  0  0  0  0  0  0  0
  -17.0020  -10.8570   28.7710 H   0  0  0  0  0  0  0  0  0  0  0  0
  -17.7500  -11.2700   28.1280 H   0  0  0  0  0  0  0  0  0  0  0  0
  -18.3950  -12.4380   28.0230 C   0  0  0  0  0 15  0  0  0  0  0  0
  -19.4650  -12.2540   26.9890 C   0  0  0  0  0  3  0  0  0  0  0  0
  -19.1410  -13.6280   27.4950 C   0  0  0  0  0  2  0  0  0  0  0  0
  -19.1430  -12.8520   27.3800 H   0  0  0  0  0  0  0  0  0  0  0  0
  -20.0400  -11.6110   26.3550 H   0  0  0  0  0  0  0  0  0  0  0  0
  -20.1280  -12.9070   26.4610 H   0  0  0  0  0  0  0  0  0  0  0  0
  -19.3140  -14.6830   27.4860 H   0  0  0  0  0  0  0  0  0  0  0  0
  -18.4480  -14.0280   28.2050 H   0  0  0  0  0  0  0  0  0  0  0  0
  -15.8870  -15.9880   36.2130 C   0  0  0  0  0  0  0  0  0  0  0  0
  -16.5430  -16.4960   36.8900 H   0  0  0  0  0  0  0  0  0  0  0  0
  -16.2920  -15.4000   35.4150 H   0  0  0  0  0  0  0  0  0  0  0  0
  -16.9470  -15.9070   36.0920 H   0  0  0  0  0  0  0  0  0  0  0  0
   -9.9430  -16.4400   36.8880 C   0  0  0  0  0  0  0  0  0  0  0  0
   -9.0680  -16.6780   35.6930 O   0  0  0  0  0  0  0  0  0  0  0  0
   -9.3310  -16.3160   38.2520 N   0  0  0  0  0  0  0  0  0  0  0  0
   -9.9050  -16.1600   39.0370 H   0  0  0  0  0  0  0  0  0  0  0  0
   -7.8450  -16.4290   38.4210 C   0  0  0  0  0  0  0  0  0  0  0  0
   -6.7850  -16.5100   38.5410 H   0  0  0  0  0  0  0  0  0  0  0  0
   -6.9620  -15.2610   38.0960 C   0  0  0  0  0  0  0  0  0  0  0  0
   -7.3930  -14.3460   37.7440 H   0  0  0  0  0  0  0  0  0  0  0  0
   -5.9020  -15.3410   38.2170 H   0  0  0  0  0  0  0  0  0  0  0  0
   -6.3320  -14.4270   37.8640 H   0  0  0  0  0  0  0  0  0  0  0  0
   -7.2410  -17.7100   38.9140 C   0  0  0  0  0  0  0  0  0  0  0  0
   -6.1810  -17.7910   39.0350 H   0  0  0  0  0  0  0  0  0  0  0  0
   -7.8710  -18.5440   39.1460 H   0  0  0  0  0  0  0  0  0  0  0  0
   -6.8110  -18.6250   39.2660 H   0  0  0  0  0  0  0  0  0  0  0  0
  1  2  1  0
  2  3  2  0
  2  7  1  0
  3  8  1  0
  4 39  1  0
  4  3  1  0
  5  4  2  0
  6  5  1  0
  6  1  2  0
  9  5  1  0
 10 11  1  0
 10  6  1  0
 11 16  1  0
 12 17  1  0
 12 11  2  0
 13 12  1  0
 14 13  2  0
 14 15  1  0
 15 10  2  0
 18 14  1  0
 19 15  1  0
 20 13  1  0
 21 20  2  0
 22 23  1  0
 22 20  1  0
 24 22  2  0
 25 24  1  0
 26 24  1  0
 28 30  1  0
 29 34  1  0
 31 28  1  0
 32 28  1  0
 33 29  1  0
 35  1  1  0
 35 36  1  0
 37 35  1  0
 38 35  1  0
 39 41  1  0
 40 39  2  0
 41 43  1  0
 41 42  1  0
 43 44  1  0
 43 49  1  0
 45 47  1  0
 45 43  1  0
 46 45  1  0
 48 45  1  0
 49 50  1  0
 49 51  1  0
 49 52  1  0
M  END
>  <minimizedAffinity>  (233) 
-9.43503475

$$$$

     RDKit          3D

 48 47  0  0  1  0  0  0  0  0999 V2000
  -11.5890  -15.7640   35.4450 C   0  0  0  0  0  3  0  0  0  0  0  0
  -10.0900  -15.7390   35.4700 C   0  0  0  0  0  0  0  0  0  0  0  0
   -9.3520  -16.2480   36.6730 C   0  0  0  0  0  0  0  0  0  0  0  0
  -10.1140  -16.7810   37.8500 C   0  0  0  0  0  0  0  0  0  0  0  0
  -11.6130  -16.8050   37.8250 C   0  0  0  0  0  0  0  0  0  0  0  0
  -12.3510  -16.2970   36.6220 C   0  0  0  0  0  0  0  0  0  0  0  0
   -9.5660  -15.3730   34.6600 H   0  0  0  0  0  0  0  0  0  0  0  0
   -8.3200  -16.2310   36.6900 H   0  0  0  0  0  0  0  0  0  0  0  0
  -13.3830  -16.3140   36.6040 H   0  0  0  0  0  0  0  0  0  0  0  0
  -12.3750  -17.3390   39.0020 N   0  0  0  0  0  0  0  0  0  0  0  0
  -13.8630  -17.1690   39.0710 C   0  0  0  0  0  0  0  0  0  0  0  0
  -14.7540  -17.6460   40.1790 N   0  0  0  0  0  0  0  0  0  0  0  0
  -16.1640  -17.2640   39.8370 C   0  0  0  0  0  0  0  0  0  0  0  0
  -16.1450  -16.5510   38.5180 C   0  0  0  0  0  0  0  0  0  0  0  0
  -14.7230  -16.4920   38.0440 O   0  0  0  0  0  0  0  0  0  0  0  0
  -11.8980  -17.8000   39.7280 H   0  0  0  0  0  0  0  0  0  0  0  0
  -17.0010  -17.4580   40.4090 H   0  0  0  0  0  0  0  0  0  0  0  0
  -17.3370  -15.9940   37.7990 C   0  0  0  0  0  0  0  0  0  0  0  0
  -18.6020  -15.7090   38.5520 C   0  0  0  0  0  0  0  0  0  0  0  0
  -19.7950  -15.1530   37.8330 C   0  0  0  0  0  0  0  0  0  0  0  0
  -19.7230  -14.8800   36.3600 C   0  0  0  0  0  0  0  0  0  0  0  0
  -18.4570  -15.1650   35.6060 C   0  0  0  0  0  0  0  0  0  0  0  0
  -17.2650  -15.7210   36.3250 C   0  0  0  0  0  0  0  0  0  0  0  0
  -18.6520  -15.8970   39.5660 H   0  0  0  0  0  0  0  0  0  0  0  0
  -20.6660  -14.9570   38.3520 H   0  0  0  0  0  0  0  0  0  0  0  0
  -20.5430  -14.4980   35.8650 H   0  0  0  0  0  0  0  0  0  0  0  0
  -16.3940  -15.9170   35.8060 H   0  0  0  0  0  0  0  0  0  0  0  0
  -18.3850  -14.8920   34.1330 C   0  0  0  0  0  3  0  0  0  0  0  0
  -19.2230  -15.6930   33.1800 O   0  0  0  0  0  1  0  0  0  0  0  0
  -17.4750  -13.8200   33.6120 C   0  0  0  0  0  0  0  0  0  0  0  0
  -16.8770  -13.2490   34.2910 H   0  0  0  0  0  0  0  0  0  0  0  0
  -17.4240  -13.6250   32.5610 H   0  0  0  0  0  0  0  0  0  0  0  0
  -16.8260  -13.0540   33.2410 H   0  0  0  0  0  0  0  0  0  0  0  0
  -12.3270  -15.2550   34.2420 S   0  0  0  0  0  0  0  0  0  0  0  0
  -11.0260  -14.8540   33.6130 O   0  0  0  0  0  0  0  0  0  0  0  0
  -13.6290  -15.6560   34.8710 O   0  0  0  0  0 15  0  0  0  0  0  0
  -13.0650  -14.7460   33.0390 C   0  0  0  0  0  3  0  0  0  0  0  0
  -13.0560  -15.3080   32.1280 H   0  0  0  0  0  0  0  0  0  0  0  0
  -12.5300  -15.6710   32.9860 H   0  0  0  0  0  0  0  0  0  0  0  0
  -13.8160  -13.4500   33.1130 C   0  0  0  0  0  0  0  0  0  0  0  0
  -14.3420  -13.0870   32.2550 H   0  0  0  0  0  0  0  0  0  0  0  0
  -13.8250  -12.8870   34.0230 H   0  0  0  0  0  0  0  0  0  0  0  0
  -14.3510  -12.5240   33.1650 H   0  0  0  0  0  0  0  0  0  0  0  0
   -9.3760  -17.2900   39.0530 O   0  0  0  0  0  0  0  0  0  0  0  0
   -8.0270  -17.9270   38.8910 C   0  0  0  0  0  0  0  0  0  0  0  0
   -7.5010  -18.2900   39.7490 H   0  0  0  0  0  0  0  0  0  0  0  0
   -7.5920  -18.0200   37.9180 H   0  0  0  0  0  0  0  0  0  0  0  0
   -7.0660  -18.3820   38.7760 H   0  0  0  0  0  0  0  0  0  0  0  0
  1  2  2  0
  1  6  1  0
  2  3  1  0
  3  8  1  0
  3  4  2  0
  4 44  1  0
  5  4  1  0
  5 10  1  0
  6  5  2  0
  7  2  1  0
  9  6  1  0
 10 11  1  0
 10 16  1  0
 11 12  2  0
 13 12  1  0
 13 17  1  0
 14 13  2  0
 15 14  1  0
 15 11  1  0
 18 14  1  0
 18 19  1  0
 19 24  1  0
 20 25  1  0
 20 19  2  0
 21 20  1  0
 22 23  1  0
 22 21  2  0
 23 18  2  0
 26 21  1  0
 27 23  1  0
 28 29  1  0
 28 22  1  0
 30 28  1  0
 30 31  1  0
 32 30  1  0
 33 30  1  0
 35 34  2  0
 37 40  1  0
 38 37  1  0
 39 37  1  0
 40 43  1  0
 40 42  1  0
 41 40  1  0
 45 44  1  0
 45 46  1  0
 47 45  1  0
 48 45  1  0
M  END
>  <minimizedAffinity>  (234) 
-9.49359322

$$$$

     RDKit          3D

 55 55  0  0  0  0  0  0  0  0999 V2000
  -15.2990  -17.2140   37.9240 C   0  0  0  0  0  3  0  0  0  0  0  0
  -15.6990  -16.5250   36.6550 C   0  0  0  0  0  0  0  0  0  0  0  0
  -17.1030  -16.0240   36.8210 C   0  0  0  0  0  0  0  0  0  0  0  0
  -17.5700  -16.4040   38.1960 S   0  0  0  0  0  0  0  0  0  0  0  0
  -16.4550  -17.1390   38.8770 C   0  0  0  0  0  0  0  0  0  0  0  0
  -15.1120  -16.4140   35.8130 H   0  0  0  0  0  0  0  0  0  0  0  0
  -17.9000  -15.2750   35.7960 N   0  0  0  0  0  0  0  0  0  0  0  0
  -19.3940  -15.1430   35.7630 C   0  0  0  0  0  0  0  0  0  0  0  0
  -19.7610  -14.3120   34.5690 N   0  0  0  0  0  0  0  0  0  0  0  0
  -18.4930  -13.9300   33.8640 C   0  0  0  0  0  0  0  0  0  0  0  0
  -18.2380  -13.1170   32.6290 C   0  0  0  0  0  0  0  0  0  0  0  0
  -16.8320  -12.8990   32.1530 C   0  0  0  0  0  0  0  0  0  0  0  0
  -15.6830  -13.4930   32.9110 C   0  0  0  0  0  0  0  0  0  0  0  0
  -15.9380  -14.3060   34.1450 C   0  0  0  0  0  0  0  0  0  0  0  0
  -17.3440  -14.5240   34.6220 C   0  0  0  0  0  0  0  0  0  0  0  0
  -20.0540  -15.5530   36.4420 H   0  0  0  0  0  0  0  0  0  0  0  0
  -19.0290  -12.7080   32.1080 H   0  0  0  0  0  0  0  0  0  0  0  0
  -16.6560  -12.3390   31.3030 H   0  0  0  0  0  0  0  0  0  0  0  0
  -15.1470  -14.7150   34.6670 H   0  0  0  0  0  0  0  0  0  0  0  0
  -14.2770  -13.2750   32.4340 O   0  0  0  0  0  0  0  0  0  0  0  0
  -13.1210  -13.6860   33.2960 C   0  0  0  0  0  3  0  0  0  0  0  0
  -12.8210  -13.0700   34.1180 H   0  0  0  0  0  0  0  0  0  0  0  0
  -12.2950  -13.9790   33.9120 H   0  0  0  0  0  0  0  0  0  0  0  0
  -12.3850  -14.9600   33.0060 C   0  0  0  0  0  3  0  0  0  0  0  0
  -13.4530  -14.9570   33.0450 H   0  0  0  0  0  0  0  0  0  0  0  0
  -10.8860  -14.9650   32.9520 C   0  0  0  0  0  0  0  0  0  0  0  0
  -10.3490  -14.0400   32.9180 H   0  0  0  0  0  0  0  0  0  0  0  0
   -9.8160  -14.9690   32.9130 H   0  0  0  0  0  0  0  0  0  0  0  0
  -10.1400  -16.2660   32.9440 O   0  0  0  0  0  0  0  0  0  0  0  0
   -9.1700  -16.2690   32.9080 H   0  0  0  0  0  0  0  0  0  0  0  0
  -13.1480  -16.2300   32.7710 O   0  0  0  0  0  0  0  0  0  0  0  0
  -12.6720  -17.0540   32.5830 H   0  0  0  0  0  0  0  0  0  0  0  0
  -16.4890  -17.7010   40.2670 C   0  0  0  0  0  0  0  0  0  0  0  0
  -15.7530  -18.9700   40.5820 N   0  0  0  0  0  0  0  0  0  0  0  0
  -17.2600  -16.9950   41.3430 O   0  0  0  0  0  0  0  0  0  0  0  0
  -15.7770  -19.3390   41.4950 H   0  0  0  0  0  0  0  0  0  0  0  0
  -15.2470  -19.4340   39.8770 H   0  0  0  0  0  0  0  0  0  0  0  0
  -13.9740  -17.8640   38.1950 O   0  0  0  0  0 15  0  0  0  0  0  0
  -12.8390  -17.0530   38.7470 C   0  0  0  0  0  3  0  0  0  0  0  0
  -13.7730  -17.0900   39.2680 H   0  0  0  0  0  0  0  0  0  0  0  0
  -11.5300  -17.0010   38.0170 C   0  0  0  0  0  0  0  0  0  0  0  0
  -10.3770  -17.8400   38.4820 C   0  0  0  0  0  0  0  0  0  0  0  0
   -9.0690  -17.7880   37.7510 C   0  0  0  0  0  0  0  0  0  0  0  0
   -8.9130  -16.8960   36.5540 C   0  0  0  0  0  0  0  0  0  0  0  0
  -10.0650  -16.0570   36.0900 C   0  0  0  0  0  0  0  0  0  0  0  0
  -11.3740  -16.1090   36.8210 C   0  0  0  0  0  0  0  0  0  0  0  0
  -12.5260  -15.2700   36.3550 Cl  0  0  0  0  0  0  0  0  0  0  0  0
  -10.4850  -18.4540   39.3050 H   0  0  0  0  0  0  0  0  0  0  0  0
   -8.2750  -18.3650   38.0710 H   0  0  0  0  0  0  0  0  0  0  0  0
   -8.0120  -16.8600   36.0520 H   0  0  0  0  0  0  0  0  0  0  0  0
   -9.9580  -15.4430   35.2660 H   0  0  0  0  0  0  0  0  0  0  0  0
  -13.0140  -16.2940   40.0280 C   0  0  0  0  0  0  0  0  0  0  0  0
  -12.2050  -15.7150   40.4220 H   0  0  0  0  0  0  0  0  0  0  0  0
  -13.9480  -16.3310   40.5490 H   0  0  0  0  0  0  0  0  0  0  0  0
  -13.1390  -15.7520   40.9430 H   0  0  0  0  0  0  0  0  0  0  0  0
  1  5  2  0
  2  3  2  0
  2  1  1  0
  3  4  1  0
  4  5  1  0
  5 33  1  0
  6  2  1  0
  7  3  1  0
  8  7  1  0
  8 16  1  0
  9  8  2  0
 10  9  1  0
 10 15  1  0
 11 10  2  0
 12 11  1  0
 12 13  2  0
 13 14  1  0
 14 15  2  0
 14 19  1  0
 15  7  1  0
 17 11  1  0
 18 12  1  0
 20 13  1  0
 20 21  1  0
 21 23  1  0
 21 22  1  0
 24 25  1  0
 26 24  1  0
 27 26  1  0
 28 26  1  0
 29 26  1  0
 30 29  1  0
 31 24  1  0
 32 31  1  0
 33 34  1  0
 33 35  2  0
 34 36  1  0
 37 34  1  0
 39 40  1  0
 39 52  1  0
 41 42  1  0
 41 39  1  0
 42 48  1  0
 43 49  1  0
 43 42  2  0
 44 43  1  0
 45 44  2  0
 45 46  1  0
 46 41  2  0
 47 46  1  0
 50 44  1  0
 51 45  1  0
 52 53  1  0
 52 54  1  0
 52 55  1  0
M  END
>  <minimizedAffinity>  (235) 
-11.699008

$$$$

     RDKit          3D

 66 66  0  0  0  0  0  0  0  0999 V2000
  -18.7230  -14.1720   33.6470 C   0  0  0  0  0  0  0  0  0  0  0  0
  -19.7950  -14.6230   34.5950 C   0  0  0  0  0  0  0  0  0  0  0  0
  -19.4230  -15.3020   35.8790 C   0  0  0  0  0  0  0  0  0  0  0  0
  -17.9790  -15.5300   36.2170 C   0  0  0  0  0  0  0  0  0  0  0  0
  -17.6070  -16.2090   37.5010 N   0  0  0  0  0  0  0  0  0  0  0  0
  -16.1630  -16.4370   37.8380 C   0  0  0  0  0  0  0  0  0  0  0  0
  -15.0910  -15.9860   36.8910 N   0  0  0  0  0  0  0  0  0  0  0  0
  -15.4630  -15.3070   35.6060 C   0  0  0  0  0  0  0  0  0  0  0  0
  -14.3920  -14.8560   34.6590 N   0  0  0  0  0  0  0  0  0  0  0  0
  -16.9070  -15.0790   35.2690 C   0  0  0  0  0  0  0  0  0  0  0  0
  -17.2790  -14.4000   33.9840 C   0  0  0  0  0  0  0  0  0  0  0  0
  -20.7880  -14.4660   34.3630 H   0  0  0  0  0  0  0  0  0  0  0  0
  -20.1600  -15.6130   36.5310 H   0  0  0  0  0  0  0  0  0  0  0  0
  -15.9070  -16.9050   38.7220 H   0  0  0  0  0  0  0  0  0  0  0  0
  -14.6360  -14.4100   33.8150 H   0  0  0  0  0  0  0  0  0  0  0  0
  -16.5420  -14.0890   33.3320 H   0  0  0  0  0  0  0  0  0  0  0  0
  -12.9480  -15.0840   34.9960 C   0  0  0  0  0  0  0  0  0  0  0  0
  -12.5680  -15.6150   36.3460 C   0  0  0  0  0  0  0  0  0  0  0  0
  -11.1240  -15.8430   36.6830 C   0  0  0  0  0  0  0  0  0  0  0  0
  -10.0610  -15.5390   35.6700 C   0  0  0  0  0  0  0  0  0  0  0  0
  -10.4410  -15.0080   34.3200 C   0  0  0  0  0  0  0  0  0  0  0  0
  -11.8840  -14.7800   33.9830 C   0  0  0  0  0  0  0  0  0  0  0  0
  -13.3000  -15.8250   37.0430 H   0  0  0  0  0  0  0  0  0  0  0  0
  -10.8630  -16.2090   37.6120 H   0  0  0  0  0  0  0  0  0  0  0  0
   -9.7090  -14.7980   33.6230 H   0  0  0  0  0  0  0  0  0  0  0  0
  -12.1460  -14.4140   33.0540 H   0  0  0  0  0  0  0  0  0  0  0  0
   -8.6170  -15.7670   36.0070 O   0  0  0  0  0  0  0  0  0  0  0  0
   -8.1810  -15.8240   37.4420 C   0  0  0  0  0  0  0  0  0  0  0  0
   -8.1580  -14.9300   38.0300 H   0  0  0  0  0  0  0  0  0  0  0  0
   -7.8710  -15.8640   38.4650 H   0  0  0  0  0  0  0  0  0  0  0  0
   -7.7780  -17.1330   38.0520 C   0  0  0  0  0  0  0  0  0  0  0  0
   -8.4550  -18.4010   37.6220 C   0  0  0  0  0  0  0  0  0  0  0  0
   -8.0520  -19.7110   38.2330 C   0  0  0  0  0  0  0  0  0  0  0  0
   -6.9720  -19.7520   39.2730 C   0  0  0  0  0  0  0  0  0  0  0  0
   -6.2960  -18.4850   39.7030 C   0  0  0  0  0  0  0  0  0  0  0  0
   -6.6990  -17.1750   39.0930 C   0  0  0  0  0  0  0  0  0  0  0  0
   -9.1980  -18.3730   36.9060 H   0  0  0  0  0  0  0  0  0  0  0  0
   -8.5170  -20.5830   37.9370 H   0  0  0  0  0  0  0  0  0  0  0  0
   -6.6950  -20.6530   39.6930 H   0  0  0  0  0  0  0  0  0  0  0  0
   -5.5530  -18.5130   40.4190 H   0  0  0  0  0  0  0  0  0  0  0  0
   -6.2330  -16.3030   39.3890 H   0  0  0  0  0  0  0  0  0  0  0  0
  -19.5880  -11.7790   30.7160 C   0  0  0  0  0  3  0  0  0  0  0  0
  -19.7470  -13.1160   30.0550 C   0  0  0  0  0  0  0  0  0  0  0  0
  -19.4430  -14.1750   31.0730 O   0  0  0  0  0  0  0  0  0  0  0  0
  -19.0950  -13.4930   32.3630 C   0  0  0  0  0  0  0  0  0  0  0  0
  -19.1840  -12.0120   32.1420 C   0  0  0  0  0  0  0  0  0  0  0  0
  -20.0190  -13.2780   29.0730 H   0  0  0  0  0  0  0  0  0  0  0  0
  -19.0010  -11.2810   32.8480 H   0  0  0  0  0  0  0  0  0  0  0  0
  -19.7950  -10.4430   30.0650 C   0  0  0  0  0  2  0  0  0  0  0  0
  -20.7740  -10.0150   30.0230 H   0  0  0  0  0  0  0  0  0  0  0  0
  -20.6260  -10.9670   30.4870 H   0  0  0  0  0  0  0  0  0  0  0  0
  -18.6280   -9.7080   29.4740 N   0  0  0  0  0  1  0  0  0  0  0  0
  -18.7240   -8.7270   29.2090 H   0  0  0  0  0  0  0  0  0  0  0  0
  -17.3210  -10.4160   29.2710 C   0  0  0  0  0  2  0  0  0  0  0  0
  -17.1860  -11.0610   28.4290 H   0  0  0  0  0  0  0  0  0  0  0  0
  -18.1180  -10.5570   28.5730 H   0  0  0  0  0  0  0  0  0  0  0  0
  -16.2020  -10.2190   30.2520 C   0  0  0  0  0  3  0  0  0  0  0  0
  -15.7450   -9.2570   30.3550 H   0  0  0  0  0  0  0  0  0  0  0  0
  -16.5430   -9.3980   29.6560 H   0  0  0  0  0  0  0  0  0  0  0  0
  -15.7260  -11.3700   31.0870 S   0  0  2  0  0  0  0  0  0  0  0  0
  -15.9800  -10.5740   32.3310 O   0  0  0  0  0  0  0  0  0  0  0  0
  -15.4720  -12.1670   29.8410 O   0  0  0  0  0  0  0  0  0  0  0  0
  -15.2500  -12.5220   31.9200 C   0  0  0  0  0  0  0  0  0  0  0  0
  -14.9220  -13.4260   31.4480 H   0  0  0  0  0  0  0  0  0  0  0  0
  -15.2360  -12.4410   32.9860 H   0  0  0  0  0  0  0  0  0  0  0  0
  -14.9090  -13.3440   32.5150 H   0  0  0  0  0  0  0  0  0  0  0  0
  1 11  2  0
  1  2  1  0
  2  3  2  0
  3  4  1  0
  3 13  1  0
  4  5  1  0
  5  6  2  0
  6 14  1  0
  7  6  1  0
  8  7  2  0
  9 17  1  0
  9  8  1  0
 10  8  1  0
 10  4  2  0
 11 10  1  0
 12  2  1  0
 15  9  1  0
 16 11  1  0
 17 18  1  0
 18 19  2  0
 18 23  1  0
 19 24  1  0
 20 27  1  0
 20 19  1  0
 21 20  2  0
 22 21  1  0
 22 17  2  0
 25 21  1  0
 26 22  1  0
 27 28  1  0
 28 29  1  0
 28 31  1  0
 28 30  1  0
 31 36  1  0
 32 31  2  0
 32 33  1  0
 33 34  2  0
 34 39  1  0
 34 35  1  0
 35 40  1  0
 36 41  1  0
 36 35  2  0
 37 32  1  0
 38 33  1  0
 42 46  1  0
 43 42  2  0
 43 44  1  0
 44 45  1  0
 45  1  1  0
 46 45  2  0
 46 48  1  0
 47 43  1  0
 49 51  1  0
 50 49  1  0
 53 52  1  0
 55 54  1  0
 56 54  1  0
 57 58  1  0
 57 60  1  0
 59 57  1  0
 60 63  1  0
 60 61  2  0
 62 60  2  0
 63 66  1  0
 63 65  1  0
 64 63  1  0
M  END
>  <minimizedAffinity>  (236) 
-9.31918716

$$$$

     RDKit          3D

 54 56  0  0  0  0  0  0  0  0999 V2000
  -12.6660  -14.8120   34.0950 C   0  0  0  0  0  0  0  0  0  0  0  0
  -13.7730  -15.4820   34.8530 C   0  0  0  0  0  0  0  0  0  0  0  0
  -15.1990  -15.0890   34.6030 C   0  0  0  0  0  0  0  0  0  0  0  0
  -15.5170  -14.0250   33.5950 C   0  0  0  0  0  0  0  0  0  0  0  0
  -14.4110  -13.3550   32.8370 C   0  0  0  0  0  0  0  0  0  0  0  0
  -12.9850  -13.7480   33.0870 C   0  0  0  0  0  0  0  0  0  0  0  0
  -13.5530  -16.2140   35.5470 H   0  0  0  0  0  0  0  0  0  0  0  0
  -15.9600  -15.5500   35.1250 H   0  0  0  0  0  0  0  0  0  0  0  0
  -14.6300  -12.6230   32.1430 H   0  0  0  0  0  0  0  0  0  0  0  0
  -12.2230  -13.2870   32.5650 H   0  0  0  0  0  0  0  0  0  0  0  0
  -16.9430  -13.6320   33.3450 C   0  0  0  0  0  0  0  0  0  0  0  0
  -17.2860  -12.7610   32.1730 C   0  0  0  0  0  0  0  0  0  0  0  0
  -18.7120  -12.3680   31.9230 C   0  0  0  0  0  0  0  0  0  0  0  0
  -19.7950  -12.8450   32.8450 C   0  0  0  0  0  0  0  0  0  0  0  0
  -19.4510  -13.7170   34.0170 C   0  0  0  0  0  0  0  0  0  0  0  0
  -18.0260  -14.1100   34.2670 C   0  0  0  0  0  0  0  0  0  0  0  0
  -16.5420  -12.4320   31.5390 H   0  0  0  0  0  0  0  0  0  0  0  0
  -20.7760  -12.5750   32.6730 H   0  0  0  0  0  0  0  0  0  0  0  0
  -20.1960  -14.0450   34.6510 H   0  0  0  0  0  0  0  0  0  0  0  0
  -19.0550  -11.4960   30.7510 C   0  0  0  0  0  0  0  0  0  0  0  0
  -19.4640  -10.0540   30.8140 N   0  0  0  0  0  0  0  0  0  0  0  0
  -19.7110   -9.5810   29.4120 N   0  0  0  0  0  0  0  0  0  0  0  0
  -19.4560  -10.7310   28.4830 C   0  0  0  0  0  0  0  0  0  0  0  0
  -19.0510  -11.9140   29.3100 O   0  0  0  0  0  0  0  0  0  0  0  0
  -19.5840  -10.7010   26.9890 C   0  0  0  0  0  0  0  0  0  0  0  0
  -19.3770  -11.5820   26.4170 H   0  0  0  0  0  0  0  0  0  0  0  0
  -19.8820   -9.7990   26.4950 H   0  0  0  0  0  0  0  0  0  0  0  0
  -19.6750  -10.6800   25.9230 H   0  0  0  0  0  0  0  0  0  0  0  0
  -17.6820  -14.9810   35.4380 C   0  0  0  0  0  0  0  0  0  0  0  0
  -18.4550  -15.3220   36.0960 H   0  0  0  0  0  0  0  0  0  0  0  0
  -16.6660  -15.2610   35.6160 H   0  0  0  0  0  0  0  0  0  0  0  0
  -17.4380  -15.6020   36.2740 H   0  0  0  0  0  0  0  0  0  0  0  0
  -10.5760  -14.8360   35.6380 N   0  0  0  0  0  2  0  0  0  0  0  0
  -11.2400  -15.2050   34.3450 C   0  0  0  0  0  0  0  0  0  0  0  0
  -10.4790  -15.9670   33.3020 O   0  0  0  0  0  0  0  0  0  0  0  0
  -11.0760  -14.3350   36.3230 H   0  0  0  0  0  0  0  0  0  0  0  0
   -9.1500  -15.2290   35.8880 C   0  0  0  0  0  3  0  0  0  0  0  0
   -8.3550  -14.6690   35.4430 H   0  0  0  0  0  0  0  0  0  0  0  0
   -9.3720  -14.3880   35.2640 H   0  0  0  0  0  0  0  0  0  0  0  0
   -8.2180  -18.7650   38.5110 C   0  0  0  0  0  0  0  0  0  0  0  0
   -7.6990  -17.4050   38.8730 C   0  0  0  0  0  0  0  0  0  0  0  0
   -8.0090  -16.2260   37.9980 C   0  0  0  0  0  0  0  0  0  0  0  0
   -8.8400  -16.4080   36.7630 C   0  0  0  0  0  0  0  0  0  0  0  0
   -9.3590  -17.7670   36.4010 C   0  0  0  0  0  0  0  0  0  0  0  0
   -9.0490  -18.9460   37.2750 C   0  0  0  0  0  0  0  0  0  0  0  0
   -7.1270  -17.2800   39.7230 H   0  0  0  0  0  0  0  0  0  0  0  0
   -7.6510  -15.2910   38.2470 H   0  0  0  0  0  0  0  0  0  0  0  0
   -9.9310  -17.8920   35.5510 H   0  0  0  0  0  0  0  0  0  0  0  0
   -9.4070  -19.8820   37.0260 H   0  0  0  0  0  0  0  0  0  0  0  0
   -7.9080  -19.9430   39.3860 O   0  0  0  0  0  0  0  0  0  0  0  0
   -6.7430  -20.8310   39.0620 C   0  0  0  0  0  0  0  0  0  0  0  0
   -6.1330  -20.6240   38.2070 H   0  0  0  0  0  0  0  0  0  0  0  0
   -6.5210  -21.6720   39.6860 H   0  0  0  0  0  0  0  0  0  0  0  0
   -5.9110  -21.4640   38.8310 H   0  0  0  0  0  0  0  0  0  0  0  0
  1 34  1  0
  1  2  1  0
  2  7  1  0
  3  2  2  0
  3  8  1  0
  4  3  1  0
  5  6  1  0
  5  4  2  0
  6  1  2  0
  9  5  1  0
 10  6  1  0
 11  4  1  0
 11 16  1  0
 12 11  2  0
 13 12  1  0
 13 14  2  0
 14 15  1  0
 15 16  2  0
 15 19  1  0
 16 29  1  0
 17 12  1  0
 18 14  1  0
 20 21  2  0
 20 13  1  0
 22 21  1  0
 23 24  1  0
 23 22  2  0
 24 20  1  0
 25 23  1  0
 26 25  1  0
 27 25  1  0
 28 25  1  0
 29 31  1  0
 29 30  1  0
 29 32  1  0
 33 36  1  0
 34 33  1  0
 35 34  2  0
 37 43  1  0
 38 37  1  0
 39 37  1  0
 40 41  1  0
 40 50  1  0
 41 46  1  0
 42 47  1  0
 42 41  2  0
 43 42  1  0
 44 43  2  0
 44 45  1  0
 45 40  2  0
 48 44  1  0
 49 45  1  0
 51 50  1  0
 51 53  1  0
 52 51  1  0
 54 51  1  0
M  END
>  <minimizedAffinity>  (237) 
-5.82761669

$$$$

     RDKit          3D

 58 58  0  0  0  0  0  0  0  0999 V2000
  -12.4400  -15.3480   35.4760 N   0  0  0  0  0  2  0  0  0  0  0  0
  -12.0950  -16.0960   36.7290 C   0  0  0  0  0  0  0  0  0  0  0  0
  -13.3750  -16.4430   37.4300 N   0  0  0  0  0  2  0  0  0  0  0  0
  -14.5120  -15.9090   36.6090 C   0  0  0  0  0  0  0  0  0  0  0  0
  -15.9980  -15.9510   36.8050 C   0  0  0  0  0  0  0  0  0  0  0  0
  -16.9070  -15.3160   35.7940 N   0  0  0  0  0  2  0  0  0  0  0  0
  -16.3290  -14.6390   34.5870 C   0  0  0  0  0  0  0  0  0  0  0  0
  -14.8420  -14.5970   34.3910 C   0  0  0  0  0  0  0  0  0  0  0  0
  -13.9340  -15.2320   35.4020 C   0  0  0  0  0  3  0  0  0  0  0  0
  -14.4440  -14.1310   33.5600 H   0  0  0  0  0  0  0  0  0  0  0  0
  -10.7130  -16.4380   37.1990 C   0  0  0  0  0  0  0  0  0  0  0  0
   -9.5270  -16.7160   36.3230 N   0  0  0  0  0  0  0  0  0  0  0  0
   -8.3540  -17.0120   37.2110 O   0  0  0  0  0  0  0  0  0  0  0  0
   -8.8150  -16.9170   38.6360 N   0  0  0  0  0  0  0  0  0  0  0  0
  -10.2730  -16.5630   38.6290 C   0  0  0  0  0  0  0  0  0  0  0  0
  -11.1380  -16.3670   39.8380 N   0  0  0  0  0  0  0  0  0  0  0  0
  -12.0890  -16.1350   39.7300 H   0  0  0  0  0  0  0  0  0  0  0  0
  -10.7570  -16.4710   40.7390 H   0  0  0  0  0  0  0  0  0  0  0  0
  -11.4630  -14.8100   34.4730 C   0  0  0  0  0  3  0  0  0  0  0  0
  -10.9430  -13.8950   34.6700 H   0  0  0  0  0  0  0  0  0  0  0  0
  -11.6400  -14.2790   35.3850 H   0  0  0  0  0  0  0  0  0  0  0  0
  -11.2140  -15.5520   33.1940 C   0  0  0  0  0  0  0  0  0  0  0  0
  -11.7350  -16.4670   32.9980 H   0  0  0  0  0  0  0  0  0  0  0  0
  -10.5180  -15.1690   32.4790 H   0  0  0  0  0  0  0  0  0  0  0  0
  -11.0370  -16.0820   32.2820 H   0  0  0  0  0  0  0  0  0  0  0  0
  -16.5770  -16.6280   38.0130 C   0  0  0  0  0  0  0  0  0  0  0  0
  -17.1550  -17.3050   39.2200 C   0  0  0  0  0  0  0  0  0  0  0  0
  -17.7330  -17.9820   40.4270 C   0  0  0  0  0  0  0  0  0  0  0  0
  -16.3500  -18.2190   40.9570 C   0  0  0  0  0  0  0  0  0  0  0  0
  -15.4990  -17.8850   40.4000 H   0  0  0  0  0  0  0  0  0  0  0  0
  -16.2140  -18.7210   41.8920 H   0  0  0  0  0  0  0  0  0  0  0  0
  -15.3630  -18.3870   41.3350 H   0  0  0  0  0  0  0  0  0  0  0  0
  -19.1160  -17.7450   39.8970 C   0  0  0  0  0  0  0  0  0  0  0  0
  -19.9670  -18.0790   40.4540 H   0  0  0  0  0  0  0  0  0  0  0  0
  -19.2520  -17.2420   38.9620 H   0  0  0  0  0  0  0  0  0  0  0  0
  -20.1030  -17.5760   39.5190 H   0  0  0  0  0  0  0  0  0  0  0  0
  -18.3110  -18.6590   41.6340 O   0  0  0  0  0  0  0  0  0  0  0  0
  -17.7230  -19.0100   42.3210 H   0  0  0  0  0  0  0  0  0  0  0  0
  -17.2370  -14.0050   33.5760 O   0  0  0  0  0  0  0  0  0  0  0  0
  -18.6390  -13.6330   33.9570 C   0  0  0  0  0  3  0  0  0  0  0  0
  -18.4610  -14.4950   33.3480 H   0  0  0  0  0  0  0  0  0  0  0  0
  -18.8900  -12.4250   34.8100 C   0  0  0  0  0  0  0  0  0  0  0  0
  -19.1900  -12.5880   36.2710 C   0  0  0  0  0  0  0  0  0  0  0  0
  -19.4400  -11.3800   37.1240 C   0  0  0  0  0  0  0  0  0  0  0  0
  -19.3900  -10.0090   36.5170 C   0  0  0  0  0  0  0  0  0  0  0  0
  -19.0900   -9.8460   35.0570 C   0  0  0  0  0  0  0  0  0  0  0  0
  -18.8400  -11.0540   34.2030 C   0  0  0  0  0  0  0  0  0  0  0  0
  -19.2240  -13.5310   36.6890 H   0  0  0  0  0  0  0  0  0  0  0  0
  -19.6470  -11.4920   38.1290 H   0  0  0  0  0  0  0  0  0  0  0  0
  -19.5620   -9.1780   37.1050 H   0  0  0  0  0  0  0  0  0  0  0  0
  -19.0560   -8.9030   34.6390 H   0  0  0  0  0  0  0  0  0  0  0  0
  -18.6330  -10.9420   33.1980 H   0  0  0  0  0  0  0  0  0  0  0  0
  -19.7920  -14.4690   33.4840 C   0  0  0  0  0  0  0  0  0  0  0  0
  -20.7620  -14.0300   33.3760 H   0  0  0  0  0  0  0  0  0  0  0  0
  -20.6130  -15.0650   33.1470 H   0  0  0  0  0  0  0  0  0  0  0  0
  -19.5840  -15.9190   33.1630 N   0  0  0  0  0  0  0  0  0  0  0  0
  -20.3670  -16.4880   32.8420 H   0  0  0  0  0  0  0  0  0  0  0  0
  -18.6590  -16.3380   33.2670 H   0  0  0  0  0  0  0  0  0  0  0  0
  1  2  2  0
  2 11  1  0
  2  3  1  0
  4  5  2  0
  4  3  1  0
  5 26  1  0
  6  5  1  0
  7  6  1  0
  8  7  1  0
  8  9  2  0
  9  4  1  0
 10  8  1  0
 11 15  1  0
 12 11  2  0
 12 13  1  0
 13 14  1  0
 15 14  2  0
 15 16  1  0
 16 18  1  0
 17 16  1  0
 19 20  1  0
 19 21  1  0
 22 19  1  0
 23 22  1  0
 24 22  1  0
 25 22  1  0
 26 27  3  0
 27 28  1  0
 28 29  1  0
 28 37  1  0
 29 32  1  0
 29 31  1  0
 30 29  1  0
 33 28  1  0
 33 34  1  0
 35 33  1  0
 36 33  1  0
 37 38  1  0
 39  7  2  0
 40 42  1  0
 41 40  1  0
 42 43  1  0
 43 48  1  0
 43 44  2  0
 44 49  1  0
 45 50  1  0
 45 44  1  0
 46 45  2  0
 47 42  2  0
 47 46  1  0
 51 46  1  0
 52 47  1  0
 53 40  1  0
 54 53  1  0
 55 53  1  0
 56 58  1  0
 56 53  1  0
 57 56  1  0
M  END
>  <minimizedAffinity>  (238) 
-10.6433201

$$$$

     RDKit          3D

 51 55  0  0  0  0  0  0  0  0999 V2000
  -13.3050  -16.5650   38.3720 C   0  0  0  0  0  0  0  0  0  0  0  0
  -11.9240  -17.0040   38.7590 N   0  0  0  0  0  0  0  0  0  0  0  0
  -11.0210  -16.7800   37.5820 N   0  0  0  0  0  0  0  0  0  0  0  0
   -9.5550  -17.0270   37.3810 N   0  0  0  0  0  0  0  0  0  0  0  0
   -8.9130  -16.6980   36.0660 C   0  0  0  0  0  0  0  0  0  0  0  0
   -9.7360  -16.1220   34.9520 C   0  0  0  0  0  0  0  0  0  0  0  0
  -11.2020  -15.8750   35.1540 C   0  0  0  0  0  0  0  0  0  0  0  0
  -11.8440  -16.2040   36.4690 C   0  0  0  0  0  0  0  0  0  0  0  0
  -13.2570  -16.0710   36.9570 C   0  0  0  0  0  0  0  0  0  0  0  0
   -7.9040  -16.8680   35.9270 H   0  0  0  0  0  0  0  0  0  0  0  0
   -9.2940  -15.8950   34.0480 H   0  0  0  0  0  0  0  0  0  0  0  0
  -11.7680  -15.4780   34.3880 H   0  0  0  0  0  0  0  0  0  0  0  0
  -16.9570  -16.7080   40.9980 C   0  0  0  0  0  0  0  0  0  0  0  0
  -16.4580  -17.9590   40.3390 C   0  0  0  0  0  0  0  0  0  0  0  0
  -15.2410  -17.9120   39.4640 C   0  0  0  0  0  0  0  0  0  0  0  0
  -14.5220  -16.6130   39.2480 C   0  0  0  0  0  0  0  0  0  0  0  0
  -15.0210  -15.3610   39.9070 C   0  0  0  0  0  0  0  0  0  0  0  0
  -16.2380  -15.4090   40.7820 C   0  0  0  0  0  0  0  0  0  0  0  0
  -16.9520  -18.8530   40.4870 H   0  0  0  0  0  0  0  0  0  0  0  0
  -14.8980  -18.7730   39.0100 H   0  0  0  0  0  0  0  0  0  0  0  0
  -14.5270  -14.4670   39.7590 H   0  0  0  0  0  0  0  0  0  0  0  0
  -16.5820  -14.5470   41.2360 H   0  0  0  0  0  0  0  0  0  0  0  0
  -18.1740  -16.7550   41.8740 O   0  0  0  0  0  0  0  0  0  0  0  0
  -19.0930  -17.9390   41.8170 C   0  0  0  0  0  0  0  0  0  0  0  0
  -18.8800  -18.7510   41.1520 H   0  0  0  0  0  0  0  0  0  0  0  0
  -19.9610  -17.9730   42.4420 H   0  0  0  0  0  0  0  0  0  0  0  0
  -19.7480  -18.7850   41.7770 H   0  0  0  0  0  0  0  0  0  0  0  0
  -14.4150  -15.5380   36.1680 C   0  0  0  0  0  0  0  0  0  0  0  0
  -15.7810  -16.1320   36.3460 C   0  0  0  0  0  0  0  0  0  0  0  0
  -16.9390  -15.5990   35.5570 C   0  0  0  0  0  0  0  0  0  0  0  0
  -16.7330  -14.4700   34.5910 N   0  0  0  0  0  0  0  0  0  0  0  0
  -15.3680  -13.8750   34.4130 C   0  0  0  0  0  0  0  0  0  0  0  0
  -15.1600  -12.7470   33.4470 N   0  0  0  0  0  0  0  0  0  0  0  0
  -14.2090  -14.4090   35.2020 N   0  0  0  0  0  0  0  0  0  0  0  0
  -15.9230  -16.9090   37.0110 H   0  0  0  0  0  0  0  0  0  0  0  0
  -17.8790  -16.0080   35.6790 H   0  0  0  0  0  0  0  0  0  0  0  0
  -14.2640  -12.3570   33.3300 H   0  0  0  0  0  0  0  0  0  0  0  0
  -16.3190  -12.2130   32.6570 C   0  0  0  0  0  0  0  0  0  0  0  0
  -17.0120  -10.9580   33.0990 C   0  0  0  0  0  0  0  0  0  0  0  0
  -18.1710  -10.4250   32.3100 C   0  0  0  0  0  0  0  0  0  0  0  0
  -18.6360  -11.1450   31.0800 C   0  0  0  0  0  0  0  0  0  0  0  0
  -19.7950  -10.6100   30.2910 Cl  0  0  0  0  0  0  0  0  0  0  0  0
  -17.9430  -12.3990   30.6380 C   0  0  0  0  0  0  0  0  0  0  0  0
  -16.7850  -12.9340   31.4270 C   0  0  0  0  0  0  0  0  0  0  0  0
  -16.6920  -10.4620   33.9460 H   0  0  0  0  0  0  0  0  0  0  0  0
  -18.6470   -9.5610   32.6140 H   0  0  0  0  0  0  0  0  0  0  0  0
  -16.3080  -13.7970   31.1240 H   0  0  0  0  0  0  0  0  0  0  0  0
  -18.4080  -13.1210   29.4080 C   0  0  0  0  0  0  0  0  0  0  0  0
  -18.8740  -13.8430   28.1780 F   0  0  0  0  0  0  0  0  0  0  0  0
  -17.4840  -12.2890   28.5690 F   0  0  0  0  0  0  0  0  0  0  0  0
  -19.3340  -13.9530   30.2460 F   0  0  0  0  0  0  0  0  0  0  0  0
  1  2  2  0
  1 16  1  0
  3  2  1  0
  4  3  1  0
  5  4  2  0
  6  7  2  0
  6  5  1  0
  7  8  1  0
  8  9  2  0
  8  3  1  0
  9  1  1  0
 10  5  1  0
 11  6  1  0
 12  7  1  0
 13 23  1  0
 14 19  1  0
 14 13  2  0
 15 14  1  0
 16 15  2  0
 16 17  1  0
 17 18  2  0
 18 13  1  0
 18 22  1  0
 20 15  1  0
 21 17  1  0
 24 23  1  0
 24 26  1  0
 25 24  1  0
 27 24  1  0
 28 29  1  0
 28  9  1  0
 29 35  1  0
 30 36  1  0
 30 29  2  0
 31 30  1  0
 32 31  2  0
 32 34  1  0
 33 32  1  0
 34 28  2  0
 37 33  1  0
 38 39  1  0
 38 33  1  0
 39 45  1  0
 40 46  1  0
 40 39  2  0
 41 40  1  0
 42 41  1  0
 43 41  2  0
 43 44  1  0
 44 38  2  0
 47 44  1  0
 48 51  1  0
 48 43  1  0
 49 48  1  0
 50 48  1  0
M  END
>  <minimizedAffinity>  (239) 
-8.51039219

$$$$

     RDKit          3D

 41 41  0  0  0  0  0  0  0  0999 V2000
  -15.4290  -15.6830   36.2410 C   0  0  0  0  0  0  0  0  0  0  0  0
  -15.0160  -16.7170   37.2460 C   0  0  0  0  0  0  0  0  0  0  0  0
  -13.5610  -16.9920   37.4830 C   0  0  0  0  0  0  0  0  0  0  0  0
  -12.5190  -16.2350   36.7140 C   0  0  0  0  0  0  0  0  0  0  0  0
  -11.0200  -16.2900   36.7330 C   0  0  0  0  0  0  0  0  0  0  0  0
  -10.1810  -17.1870   37.5950 N   0  0  0  0  0  0  0  0  0  0  0  0
   -8.6840  -17.1290   37.5030 C   0  0  0  0  0  0  0  0  0  0  0  0
   -8.0280  -16.1760   36.5510 O   0  0  0  0  0  0  0  0  0  0  0  0
  -10.5070  -15.2910   35.7390 N   0  0  0  0  0  0  0  0  0  0  0  0
  -11.6890  -14.6180   35.1060 N   0  0  0  0  0  0  0  0  0  0  0  0
  -12.9320  -15.2020   35.7090 C   0  0  0  0  0  0  0  0  0  0  0  0
  -14.3870  -14.9260   35.4720 C   0  0  0  0  0  0  0  0  0  0  0  0
  -15.7330  -17.2380   37.7750 H   0  0  0  0  0  0  0  0  0  0  0  0
  -13.2760  -17.7030   38.1750 H   0  0  0  0  0  0  0  0  0  0  0  0
  -10.6130  -17.8130   38.2200 H   0  0  0  0  0  0  0  0  0  0  0  0
  -11.6550  -13.9160   34.4160 H   0  0  0  0  0  0  0  0  0  0  0  0
  -14.6720  -14.2150   34.7800 H   0  0  0  0  0  0  0  0  0  0  0  0
  -18.8220  -14.7810   34.3900 C   0  0  0  0  0  0  0  0  0  0  0  0
  -19.7950  -14.8560   35.5300 C   0  0  0  0  0  0  0  0  0  0  0  0
  -19.3120  -15.2060   36.9060 C   0  0  0  0  0  0  0  0  0  0  0  0
  -17.8570  -15.4820   37.1430 C   0  0  0  0  0  0  0  0  0  0  0  0
  -16.8840  -15.4070   36.0040 C   0  0  0  0  0  0  0  0  0  0  0  0
  -17.3670  -15.0570   34.6270 C   0  0  0  0  0  0  0  0  0  0  0  0
  -20.7960  -14.6660   35.3670 H   0  0  0  0  0  0  0  0  0  0  0  0
  -19.9820  -15.2570   37.6900 H   0  0  0  0  0  0  0  0  0  0  0  0
  -17.5250  -15.7230   38.0900 H   0  0  0  0  0  0  0  0  0  0  0  0
  -16.6980  -15.0060   33.8430 H   0  0  0  0  0  0  0  0  0  0  0  0
  -19.3050  -14.4310   33.0140 S   0  0  2  0  0  0  0  0  0  0  0  0
  -19.1900  -12.9730   33.3450 O   0  0  0  0  0  0  0  0  0  0  0  0
  -19.4200  -15.8900   32.6830 O   0  0  0  0  0  0  0  0  0  0  0  0
  -19.7880  -14.0810   31.6380 N   0  0  0  0  0  0  0  0  0  0  0  0
  -19.8840  -13.1030   31.3640 H   0  0  0  0  0  0  0  0  0  0  0  0
  -20.0190  -14.8200   30.9750 H   0  0  0  0  0  0  0  0  0  0  0  0
   -7.8460  -18.0260   38.3650 C   0  0  0  0  0  1  0  0  0  0  0  0
   -6.7400  -18.2070   39.3620 C   0  0  0  0  0  2  0  0  0  0  0  0
   -7.4990  -19.3990   38.8610 C   0  0  0  0  0  3  0  0  0  0  0  0
   -7.2480  -18.6670   38.9800 H   0  0  0  0  0  0  0  0  0  0  0  0
   -5.9720  -17.7900   39.9780 H   0  0  0  0  0  0  0  0  0  0  0  0
   -6.3030  -19.0450   39.8630 H   0  0  0  0  0  0  0  0  0  0  0  0
   -7.6700  -20.4560   38.8580 H   0  0  0  0  0  0  0  0  0  0  0  0
   -8.3060  -19.5480   38.1720 H   0  0  0  0  0  0  0  0  0  0  0  0
  1  2  1  0
  2  3  2  0
  2 13  1  0
  3 14  1  0
  4  5  1  0
  4  3  1  0
  5  6  1  0
  6 15  1  0
  7  6  1  0
  7 34  1  0
  8  7  2  0
  9  5  2  0
 10 11  1  0
 10  9  1  0
 11  4  2  0
 12 11  1  0
 12  1  2  0
 16 10  1  0
 17 12  1  0
 18 23  2  0
 18 19  1  0
 19 20  2  0
 20 21  1  0
 20 25  1  0
 21 26  1  0
 22  1  1  0
 22 21  2  0
 23 22  1  0
 24 19  1  0
 27 23  1  0
 28 29  2  0
 28 18  1  0
 30 28  2  0
 31 28  1  0
 32 31  1  0
 33 31  1  0
 35 39  1  0
 35 38  1  0
 36 37  1  0
 40 36  1  0
 41 36  1  0
M  END
>  <minimizedAffinity>  (240) 
-9.72264194

$$$$

     RDKit          3D

 54 55  0  0  0  0  0  0  0  0999 V2000
  -12.2660  -14.8230   33.7600 C   0  0  0  0  0  2  0  0  0  0  0  0
  -12.6840  -15.3280   35.1100 C   0  0  0  0  0 15  0  0  0  0  0  0
  -14.1020  -15.1610   35.5680 C   0  0  0  0  0  3  0  0  0  0  0  0
  -15.1040  -14.4890   34.6750 N   0  0  0  0  0  0  0  0  0  0  0  0
  -14.6860  -13.9850   33.3260 C   0  0  0  0  0  0  0  0  0  0  0  0
  -13.2680  -14.1520   32.8690 N   0  0  0  0  0  0  0  0  0  0  0  0
  -13.3880  -15.6400   36.2040 H   0  0  0  0  0  0  0  0  0  0  0  0
  -12.9940  -13.8210   31.9830 H   0  0  0  0  0  0  0  0  0  0  0  0
  -14.5190  -15.6650   36.9170 C   0  0  0  0  0  0  0  0  0  0  0  0
  -14.2310  -14.8520   38.1450 C   0  0  0  0  0  0  0  0  0  0  0  0
  -14.6480  -15.3560   39.4940 C   0  0  0  0  0  0  0  0  0  0  0  0
  -15.3540  -16.6740   39.6170 C   0  0  0  0  0  0  0  0  0  0  0  0
  -15.7710  -17.1780   40.9660 F   0  0  0  0  0  0  0  0  0  0  0  0
  -15.6430  -17.4870   38.3890 C   0  0  0  0  0  0  0  0  0  0  0  0
  -15.2250  -16.9830   37.0400 C   0  0  0  0  0  0  0  0  0  0  0  0
  -13.7450  -13.9450   38.0600 H   0  0  0  0  0  0  0  0  0  0  0  0
  -14.4500  -14.7970   40.3380 H   0  0  0  0  0  0  0  0  0  0  0  0
  -16.1290  -18.3940   38.4740 H   0  0  0  0  0  0  0  0  0  0  0  0
  -15.4240  -17.5420   36.1960 H   0  0  0  0  0  0  0  0  0  0  0  0
  -15.6880  -13.3140   32.4330 C   0  0  0  0  0  0  0  0  0  0  0  0
  -15.3140  -12.9500   31.0270 C   0  0  0  0  0  0  0  0  0  0  0  0
  -16.3160  -12.2790   30.1340 C   0  0  0  0  0  0  0  0  0  0  0  0
  -17.6910  -11.9710   30.6490 C   0  0  0  0  0  0  0  0  0  0  0  0
  -18.0640  -12.3350   32.0550 N   0  0  0  0  0  0  0  0  0  0  0  0
  -17.0630  -13.0060   32.9480 C   0  0  0  0  0  0  0  0  0  0  0  0
  -14.3690  -13.1620   30.6730 H   0  0  0  0  0  0  0  0  0  0  0  0
  -16.0590  -12.0290   29.1670 H   0  0  0  0  0  0  0  0  0  0  0  0
  -17.3200  -13.2560   33.9150 H   0  0  0  0  0  0  0  0  0  0  0  0
  -18.6930  -11.3000   29.7560 C   0  0  0  0  0  0  0  0  0  0  0  0
  -19.6940  -10.6280   28.8640 F   0  0  0  0  0  0  0  0  0  0  0  0
  -19.7490  -12.2550   30.2250 F   0  0  0  0  0  0  0  0  0  0  0  0
  -17.6350  -10.3440   29.2880 F   0  0  0  0  0  0  0  0  0  0  0  0
  -10.8470  -14.9910   33.3030 C   0  0  0  0  0  0  0  0  0  0  0  0
  -10.1330  -15.4700   33.9400 H   0  0  0  0  0  0  0  0  0  0  0  0
  -10.5500  -14.6310   32.3400 H   0  0  0  0  0  0  0  0  0  0  0  0
   -9.8360  -15.1100   32.9770 H   0  0  0  0  0  0  0  0  0  0  0  0
  -11.6820  -15.9990   36.0020 C   0  0  0  0  0  2  0  0  0  0  0  0
  -12.1000  -17.1540   36.8640 O   0  0  0  0  0  1  0  0  0  0  0  0
  -10.2620  -15.5160   36.0330 N   0  0  0  0  0  0  0  0  0  0  0  0
   -9.9870  -14.7590   35.4680 H   0  0  0  0  0  0  0  0  0  0  0  0
   -9.2600  -16.1880   36.9250 C   0  0  0  0  0  0  0  0  0  0  0  0
   -8.3140  -15.3620   37.7450 C   0  0  0  0  0  0  0  0  0  0  0  0
   -7.3120  -16.0330   38.6370 C   0  0  0  0  0  0  0  0  0  0  0  0
   -7.2580  -17.5300   38.7100 C   0  0  0  0  0  0  0  0  0  0  0  0
   -6.3850  -18.4660   39.4930 N   0  0  0  0  0  0  0  0  0  0  0  0
   -6.7920  -19.8710   39.1580 N   0  0  0  0  0  0  0  0  0  0  0  0
   -7.9170  -19.8020   38.1680 C   0  0  0  0  0  0  0  0  0  0  0  0
   -8.2040  -18.3560   37.8910 C   0  0  0  0  0  0  0  0  0  0  0  0
   -9.2060  -17.6850   36.9980 C   0  0  0  0  0  0  0  0  0  0  0  0
   -8.3510  -14.3320   37.6950 H   0  0  0  0  0  0  0  0  0  0  0  0
   -6.6600  -15.4650   39.2010 H   0  0  0  0  0  0  0  0  0  0  0  0
   -5.6700  -18.2040   40.1170 H   0  0  0  0  0  0  0  0  0  0  0  0
   -8.4060  -20.6090   37.7500 H   0  0  0  0  0  0  0  0  0  0  0  0
   -9.8570  -18.2530   36.4350 H   0  0  0  0  0  0  0  0  0  0  0  0
  3  7  1  0
  3  9  1  0
  4  3  1  0
  5  4  2  0
  6  5  1  0
  6  1  1  0
  8  6  1  0
  9 15  2  0
  9 10  1  0
 10 11  2  0
 11 12  1  0
 11 17  1  0
 12 13  1  0
 14 18  1  0
 14 12  2  0
 15 14  1  0
 16 10  1  0
 19 15  1  0
 20 25  1  0
 20  5  1  0
 21 20  2  0
 22 23  2  0
 22 21  1  0
 23 24  1  0
 24 25  2  0
 25 28  1  0
 26 21  1  0
 27 22  1  0
 29 31  1  0
 29 23  1  0
 30 29  1  0
 32 29  1  0
 33  1  1  0
 33 34  1  0
 35 33  1  0
 36 33  1  0
 37 39  1  0
 37 38  1  0
 39 41  1  0
 40 39  1  0
 41 49  2  0
 41 42  1  0
 42 43  2  0
 43 44  1  0
 43 51  1  0
 44 45  1  0
 45 52  1  0
 46 45  1  0
 47 46  2  0
 48 47  1  0
 48 44  2  0
 49 48  1  0
 50 42  1  0
 53 47  1  0
 54 49  1  0
M  END
>  <minimizedAffinity>  (241) 
-9.31972408

$$$$

     RDKit          3D

 35 37  0  0  0  0  0  0  0  0999 V2000
  -14.3060  -13.2140   33.0020 O   0  0  0  0  0  0  0  0  0  0  0  0
  -13.2310  -14.1300   33.5070 C   0  0  0  0  0  0  0  0  0  0  0  0
  -12.2310  -14.8640   32.6650 N   0  0  0  0  0  0  0  0  0  0  0  0
  -11.3490  -15.6610   33.5800 C   0  0  0  0  0  0  0  0  0  0  0  0
  -10.2120  -16.5440   33.1620 O   0  0  0  0  0  0  0  0  0  0  0  0
  -11.8050  -15.4190   34.9890 C   0  0  0  0  0  0  0  0  0  0  0  0
  -12.9680  -14.4730   34.9440 C   0  0  0  0  0  0  0  0  0  0  0  0
  -12.1650  -14.8290   31.6830 H   0  0  0  0  0  0  0  0  0  0  0  0
  -11.2030  -16.0170   36.2260 C   0  0  0  0  0  0  0  0  0  0  0  0
  -12.0430  -16.8670   37.1330 C   0  0  0  0  0  0  0  0  0  0  0  0
  -11.4410  -17.4660   38.3690 C   0  0  0  0  0  0  0  0  0  0  0  0
   -9.9990  -17.2150   38.6990 C   0  0  0  0  0  0  0  0  0  0  0  0
   -9.1590  -16.3650   37.7920 C   0  0  0  0  0  0  0  0  0  0  0  0
   -9.7610  -15.7670   36.5550 C   0  0  0  0  0  0  0  0  0  0  0  0
  -13.0350  -17.0400   36.9060 H   0  0  0  0  0  0  0  0  0  0  0  0
  -12.0190  -18.0510   38.9940 H   0  0  0  0  0  0  0  0  0  0  0  0
   -9.5850  -17.6270   39.5500 H   0  0  0  0  0  0  0  0  0  0  0  0
   -9.1830  -15.1820   35.9310 H   0  0  0  0  0  0  0  0  0  0  0  0
   -7.7180  -16.1150   38.1210 N   0  0  0  0  0  0  0  0  0  0  0  0
   -6.9410  -17.1270   38.9100 O   0  0  0  0  0  0  0  0  0  0  0  0
   -7.0520  -14.8510   37.6630 O   0  0  0  0  0  0  0  0  0  0  0  0
  -13.7330  -13.9600   36.1270 N   0  0  0  0  0  0  0  0  0  0  0  0
  -13.4400  -13.1390   36.5850 H   0  0  0  0  0  0  0  0  0  0  0  0
  -14.9460  -14.6970   36.6140 C   0  0  0  0  0  0  0  0  0  0  0  0
  -14.9200  -15.3900   37.9430 C   0  0  0  0  0  0  0  0  0  0  0  0
  -16.1330  -16.1270   38.4300 C   0  0  0  0  0  0  0  0  0  0  0  0
  -16.1060  -16.8200   39.7590 Cl  0  0  0  0  0  0  0  0  0  0  0  0
  -17.3720  -16.1700   37.5850 C   0  0  0  0  0  0  0  0  0  0  0  0
  -17.3980  -15.4770   36.2560 C   0  0  0  0  0  0  0  0  0  0  0  0
  -18.6380  -15.5200   35.4120 Cl  0  0  0  0  0  0  0  0  0  0  0  0
  -16.1860  -14.7400   35.7690 C   0  0  0  0  0  0  0  0  0  0  0  0
  -14.0670  -15.3600   38.5240 H   0  0  0  0  0  0  0  0  0  0  0  0
  -16.2040  -14.2630   34.8550 H   0  0  0  0  0  0  0  0  0  0  0  0
  -18.5860  -16.9070   38.0710 O   0  0  0  0  0  0  0  0  0  0  0  0
  -18.5680  -17.3400   38.9020 H   0  0  0  0  0  0  0  0  0  0  0  0
  1  2  2  0
  2  7  1  0
  3  2  1  0
  3  4  1  0
  4  6  1  0
  5  4  2  0
  6  9  1  0
  7  6  2  0
  7 22  1  0
  8  3  1  0
  9 14  2  0
  9 10  1  0
 10 11  2  0
 11 12  1  0
 11 16  1  0
 12 17  1  0
 13 19  1  0
 13 12  2  0
 14 13  1  0
 15 10  1  0
 18 14  1  0
 19 20  2  0
 21 19  2  0
 22 23  1  0
 22 24  1  0
 24 25  1  0
 25 26  2  0
 25 32  1  0
 26 27  1  0
 28 34  1  0
 28 26  1  0
 29 28  2  0
 30 29  1  0
 31 29  1  0
 31 24  2  0
 33 31  1  0
 34 35  1  0
M  END
>  <minimizedAffinity>  (242) 
-8.98594093

$$$$

     RDKit          3D

 62 65  0  0  0  0  0  0  0  0999 V2000
  -16.4910  -16.3640   40.3780 N   0  0  0  0  0  0  0  0  0  0  0  0
  -17.2420  -16.0860   39.1100 C   0  0  0  0  0  0  0  0  0  0  0  0
  -18.6880  -15.6890   39.1660 C   0  0  0  0  0  0  0  0  0  0  0  0
  -19.4390  -15.4110   37.8980 C   0  0  0  0  0  0  0  0  0  0  0  0
  -18.7450  -15.5300   36.5740 C   0  0  0  0  0  0  0  0  0  0  0  0
  -17.2990  -15.9260   36.5180 C   0  0  0  0  0  0  0  0  0  0  0  0
  -16.5480  -16.2040   37.7860 C   0  0  0  0  0  0  0  0  0  0  0  0
  -19.1650  -15.6080   40.0770 H   0  0  0  0  0  0  0  0  0  0  0  0
  -20.4340  -15.1380   37.9370 H   0  0  0  0  0  0  0  0  0  0  0  0
  -16.8210  -16.0080   35.6060 H   0  0  0  0  0  0  0  0  0  0  0  0
  -15.5530  -16.4770   37.7470 H   0  0  0  0  0  0  0  0  0  0  0  0
  -19.4960  -15.2510   35.3060 N   0  0  0  0  0  0  0  0  0  0  0  0
  -19.0150  -14.1840   34.3680 C   0  0  0  0  0  0  0  0  0  0  0  0
  -17.7830  -13.3940   34.6980 O   0  0  0  0  0  0  0  0  0  0  0  0
  -19.7660  -13.9060   33.1000 N   0  0  0  0  0  0  0  0  0  0  0  0
  -20.3040  -15.7690   35.0890 H   0  0  0  0  0  0  0  0  0  0  0  0
  -20.5740  -14.4240   32.8830 H   0  0  0  0  0  0  0  0  0  0  0  0
  -19.2860  -12.8380   32.1620 C   0  0  0  0  0  0  0  0  0  0  0  0
  -19.4070  -11.3930   32.5460 C   0  0  0  0  0  0  0  0  0  0  0  0
  -18.9260  -10.3250   31.6080 C   0  0  0  0  0  0  0  0  0  0  0  0
  -18.3250  -10.7030   30.2870 C   0  0  0  0  0  0  0  0  0  0  0  0
  -18.2040  -12.1480   29.9030 C   0  0  0  0  0  0  0  0  0  0  0  0
  -18.6840  -13.2160   30.8410 C   0  0  0  0  0  0  0  0  0  0  0  0
  -19.8210  -11.1330   33.4550 H   0  0  0  0  0  0  0  0  0  0  0  0
  -19.0090   -9.3310   31.8720 H   0  0  0  0  0  0  0  0  0  0  0  0
  -17.7900  -12.4080   28.9940 H   0  0  0  0  0  0  0  0  0  0  0  0
  -18.6010  -14.2100   30.5770 H   0  0  0  0  0  0  0  0  0  0  0  0
  -17.8440   -9.6350   29.3490 O   0  0  0  0  0  0  0  0  0  0  0  0
  -16.6800   -9.9030   28.4410 C   0  0  0  0  0  0  0  0  0  0  0  0
  -15.5170  -10.1700   27.5330 F   0  0  0  0  0  0  0  0  0  0  0  0
  -17.6270  -10.1910   27.3140 F   0  0  0  0  0  0  0  0  0  0  0  0
  -15.7340   -9.6150   29.5690 F   0  0  0  0  0  0  0  0  0  0  0  0
  -14.9950  -16.2520   40.4040 C   0  0  0  0  0  0  0  0  0  0  0  0
  -14.3060  -15.6940   41.6130 C   0  0  0  0  0  0  0  0  0  0  0  0
  -12.8100  -15.5830   41.6390 C   0  0  0  0  0  0  0  0  0  0  0  0
  -12.0040  -16.0290   40.4550 N   0  0  0  0  0  0  0  0  0  0  0  0
  -12.6940  -16.5860   39.2460 C   0  0  0  0  0  0  0  0  0  0  0  0
  -11.8880  -17.0320   38.0620 N   0  0  0  0  0  0  0  0  0  0  0  0
  -14.1900  -16.6980   39.2200 N   0  0  0  0  0  0  0  0  0  0  0  0
  -14.8600  -15.3870   42.4280 H   0  0  0  0  0  0  0  0  0  0  0  0
  -12.3350  -15.1990   42.4720 H   0  0  0  0  0  0  0  0  0  0  0  0
  -12.3410  -17.3990   37.2680 H   0  0  0  0  0  0  0  0  0  0  0  0
  -10.3920  -16.9210   38.0870 C   0  0  0  0  0  0  0  0  0  0  0  0
   -9.7310  -15.6230   37.7280 C   0  0  0  0  0  0  0  0  0  0  0  0
   -8.2350  -15.5120   37.7540 C   0  0  0  0  0  0  0  0  0  0  0  0
   -7.4010  -16.6970   38.1390 C   0  0  0  0  0  0  0  0  0  0  0  0
   -8.0630  -17.9950   38.4980 C   0  0  0  0  0  0  0  0  0  0  0  0
   -9.5580  -18.1060   38.4730 C   0  0  0  0  0  0  0  0  0  0  0  0
  -10.3050  -14.8070   37.4630 H   0  0  0  0  0  0  0  0  0  0  0  0
   -7.7800  -14.6190   37.5060 H   0  0  0  0  0  0  0  0  0  0  0  0
   -6.3720  -16.6200   38.1560 H   0  0  0  0  0  0  0  0  0  0  0  0
  -10.0130  -18.9990   38.7200 H   0  0  0  0  0  0  0  0  0  0  0  0
   -7.2290  -19.1800   38.8830 S   0  0  1  0  0  0  0  0  0  0  0  0
   -6.2960  -18.2790   39.6380 O   0  0  0  0  0  0  0  0  0  0  0  0
   -8.1610  -20.0810   38.1290 O   0  0  0  0  0  0  0  0  0  0  0  0
   -6.3940  -20.3660   39.2680 N   0  0  0  0  0  0  0  0  0  0  0  0
   -5.5620  -20.2390   39.8440 H   0  0  0  0  0  0  0  0  0  0  0  0
   -6.6600  -21.2990   38.9550 H   0  0  0  0  0  0  0  0  0  0  0  0
  -17.2350  -16.7530   41.6210 C   0  0  0  0  0  0  0  0  0  0  0  0
  -18.3020  -16.8330   41.6020 H   0  0  0  0  0  0  0  0  0  0  0  0
  -16.7000  -16.9520   42.5260 H   0  0  0  0  0  0  0  0  0  0  0  0
  -17.7660  -17.0320   42.5070 H   0  0  0  0  0  0  0  0  0  0  0  0
  1 33  1  0
  1 59  1  0
  2  3  1  0
  2  1  1  0
  3  8  1  0
  4  9  1  0
  4  3  2  0
  5  4  1  0
  6  5  2  0
  6  7  1  0
  7  2  2  0
 10  6  1  0
 11  7  1  0
 12  5  1  0
 13 14  2  0
 13 12  1  0
 15 13  1  0
 16 12  1  0
 17 15  1  0
 18 19  1  0
 18 15  1  0
 19 24  1  0
 20 25  1  0
 20 19  2  0
 21 20  1  0
 22 21  2  0
 22 23  1  0
 23 18  2  0
 26 22  1  0
 27 23  1  0
 28 21  1  0
 29 28  1  0
 29 32  1  0
 30 29  1  0
 31 29  1  0
 33 34  1  0
 34 35  2  0
 34 40  1  0
 35 41  1  0
 36 35  1  0
 37 36  2  0
 38 43  1  0
 38 37  1  0
 39 37  1  0
 39 33  2  0
 42 38  1  0
 43 48  1  0
 44 45  1  0
 44 43  2  0
 45 46  2  0
 46 51  1  0
 46 47  1  0
 47 53  1  0
 48 47  2  0
 48 52  1  0
 49 44  1  0
 50 45  1  0
 53 56  1  0
 53 54  2  0
 55 53  2  0
 56 57  1  0
 58 56  1  0
 59 62  1  0
 59 61  1  0
 60 59  1  0
M  END
>  <minimizedAffinity>  (243) 
-6.64098024

$$$$

     RDKit          3D

 59 63  0  0  0  0  0  0  0  0999 V2000
  -14.5320  -14.7020   34.6930 C   0  0  0  0  0  0  0  0  0  0  0  0
  -15.8110  -14.9390   35.4400 C   0  0  0  0  0  0  0  0  0  0  0  0
  -16.9340  -14.3600   34.6320 N   0  0  0  0  0  0  0  0  0  0  0  0
  -16.3490  -13.7660   33.3850 C   0  0  0  0  0  0  0  0  0  0  0  0
  -14.8650  -13.9760   33.4220 N   0  0  0  0  0  0  0  0  0  0  0  0
   -8.8170  -16.7910   37.8910 C   0  0  0  0  0  0  0  0  0  0  0  0
   -9.9570  -16.8020   38.8650 C   0  0  0  0  0  0  0  0  0  0  0  0
  -11.3280  -16.3870   38.4210 C   0  0  0  0  0  0  0  0  0  0  0  0
  -11.5590  -15.9600   37.0020 C   0  0  0  0  0  0  0  0  0  0  0  0
  -12.9300  -15.5450   36.5570 C   0  0  0  0  0  0  0  0  0  0  0  0
  -13.1610  -15.1170   35.1380 C   0  0  0  0  0  0  0  0  0  0  0  0
  -12.0210  -15.1060   34.1630 C   0  0  0  0  0  0  0  0  0  0  0  0
  -10.6500  -15.5210   34.6080 C   0  0  0  0  0  0  0  0  0  0  0  0
  -10.4190  -15.9480   36.0270 C   0  0  0  0  0  0  0  0  0  0  0  0
   -9.0480  -16.3630   36.4720 C   0  0  0  0  0  0  0  0  0  0  0  0
   -9.7990  -17.0960   39.8420 H   0  0  0  0  0  0  0  0  0  0  0  0
  -12.1130  -16.3950   39.0910 H   0  0  0  0  0  0  0  0  0  0  0  0
  -13.7150  -15.5530   37.2270 H   0  0  0  0  0  0  0  0  0  0  0  0
  -12.1790  -14.8120   33.1860 H   0  0  0  0  0  0  0  0  0  0  0  0
   -9.8650  -15.5130   33.9370 H   0  0  0  0  0  0  0  0  0  0  0  0
   -8.2630  -16.3550   35.8010 H   0  0  0  0  0  0  0  0  0  0  0  0
   -7.4460  -17.2060   38.3360 O   0  0  0  0  0  0  0  0  0  0  0  0
   -7.1620  -18.6460   38.6440 C   0  0  0  0  0  0  0  0  0  0  0  0
   -7.9370  -19.3780   38.5460 H   0  0  0  0  0  0  0  0  0  0  0  0
   -6.1840  -18.9420   38.9610 H   0  0  0  0  0  0  0  0  0  0  0  0
   -6.9590  -19.6740   38.8630 H   0  0  0  0  0  0  0  0  0  0  0  0
  -15.9430  -15.6330   36.7630 C   0  0  0  0  0  0  0  0  0  0  0  0
  -15.7360  -17.1160   36.8560 C   0  0  0  0  0  0  0  0  0  0  0  0
  -15.8680  -17.8090   38.1790 C   0  0  0  0  0  0  0  0  0  0  0  0
  -16.2070  -17.0210   39.4090 N   0  0  0  0  0  0  0  0  0  0  0  0
  -16.4140  -15.5380   39.3170 C   0  0  0  0  0  0  0  0  0  0  0  0
  -16.2820  -14.8440   37.9940 C   0  0  0  0  0  0  0  0  0  0  0  0
  -15.5030  -17.6580   36.0100 H   0  0  0  0  0  0  0  0  0  0  0  0
  -15.7250  -18.8300   38.2430 H   0  0  0  0  0  0  0  0  0  0  0  0
  -16.6470  -14.9960   40.1630 H   0  0  0  0  0  0  0  0  0  0  0  0
  -16.4240  -13.8240   37.9300 H   0  0  0  0  0  0  0  0  0  0  0  0
  -17.1150  -13.0800   32.2920 C   0  0  0  0  0  0  0  0  0  0  0  0
  -17.9940  -13.8800   31.3770 C   0  0  0  0  0  0  0  0  0  0  0  0
  -18.7590  -13.1930   30.2840 C   0  0  0  0  0  0  0  0  0  0  0  0
  -18.6460  -11.7090   30.1070 C   0  0  0  0  0  0  0  0  0  0  0  0
  -17.7670  -10.9090   31.0220 C   0  0  0  0  0  0  0  0  0  0  0  0
  -17.0020  -11.5950   32.1150 C   0  0  0  0  0  0  0  0  0  0  0  0
  -18.0720  -14.9010   31.4990 H   0  0  0  0  0  0  0  0  0  0  0  0
  -19.3650  -13.7440   29.6540 H   0  0  0  0  0  0  0  0  0  0  0  0
  -17.6890   -9.8880   30.9000 H   0  0  0  0  0  0  0  0  0  0  0  0
  -16.1220  -10.7950   33.0300 C   0  0  0  0  0  0  0  0  0  0  0  0
  -16.0410   -9.7360   32.9040 H   0  0  0  0  0  0  0  0  0  0  0  0
  -15.5760  -11.2840   33.8100 H   0  0  0  0  0  0  0  0  0  0  0  0
  -15.4950  -10.2250   33.6830 H   0  0  0  0  0  0  0  0  0  0  0  0
  -19.4120  -11.0240   29.0140 S   0  0  0  0  0  0  0  0  0  0  0  0
  -19.7950  -11.7820   27.7780 O   0  0  0  0  0  0  0  0  0  0  0  0
  -19.7950   -9.5810   29.1560 C   0  0  0  0  0  0  0  0  0  0  0  0
  -19.5220   -9.0390   30.0390 H   0  0  0  0  0  0  0  0  0  0  0  0
  -20.3410   -9.0930   28.3770 H   0  0  0  0  0  0  0  0  0  0  0  0
  -20.0680   -8.5510   29.2590 H   0  0  0  0  0  0  0  0  0  0  0  0
  -13.8850  -13.5400   32.3740 C   0  0  0  0  0  0  0  0  0  0  0  0
  -12.8420  -13.7410   32.4990 H   0  0  0  0  0  0  0  0  0  0  0  0
  -14.2300  -13.0260   31.5010 H   0  0  0  0  0  0  0  0  0  0  0  0
  -13.1870  -13.2280   31.6260 H   0  0  0  0  0  0  0  0  0  0  0  0
  1 11  1  0
  1  2  2  0
  2 27  1  0
  3  2  1  0
  4  5  1  0
  4  3  2  0
  5  1  1  0
  6 22  1  0
  6  7  1  0
  7 16  1  0
  8  7  2  0
  8 17  1  0
  9  8  1  0
 10  9  1  0
 10 18  1  0
 11 10  2  0
 12 13  2  0
 12 11  1  0
 13 14  1  0
 14 15  1  0
 14  9  2  0
 15  6  2  0
 19 12  1  0
 20 13  1  0
 21 15  1  0
 22 23  1  0
 23 26  1  0
 23 25  1  0
 24 23  1  0
 27 28  2  0
 27 32  1  0
 28 29  1  0
 29 34  1  0
 29 30  2  0
 31 30  1  0
 31 35  1  0
 32 31  2  0
 33 28  1  0
 36 32  1  0
 37  4  1  0
 38 43  1  0
 38 37  2  0
 39 38  1  0
 40 39  2  0
 40 41  1  0
 41 42  2  0
 42 37  1  0
 42 46  1  0
 44 39  1  0
 45 41  1  0
 46 49  1  0
 46 48  1  0
 47 46  1  0
 50 51  2  0
 50 52  1  0
 50 40  1  0
 52 55  1  0
 52 53  1  0
 54 52  1  0
 56 57  1  0
 56  5  1  0
 58 56  1  0
 59 56  1  0
M  END
>  <minimizedAffinity>  (244) 
-8.92245579

$$$$

     RDKit          3D

 52 55  0  0  0  0  0  0  0  0999 V2000
  -11.7580  -15.3430   34.3680 N   0  0  0  0  0  0  0  0  0  0  0  0
  -11.2490  -16.0520   35.5890 C   0  0  0  0  0  0  0  0  0  0  0  0
   -9.8220  -16.5080   35.6510 N   0  0  0  0  0  0  0  0  0  0  0  0
   -9.3130  -17.2160   36.8720 C   0  0  0  0  0  0  0  0  0  0  0  0
  -10.2320  -17.4680   38.0300 C   0  0  0  0  0  0  0  0  0  0  0  0
  -11.6600  -17.0120   37.9680 C   0  0  0  0  0  0  0  0  0  0  0  0
  -12.5790  -17.2640   39.1260 N   0  0  0  0  0  0  0  0  0  0  0  0
  -12.1680  -16.3040   36.7470 N   0  0  0  0  0  0  0  0  0  0  0  0
  -11.1540  -15.1780   33.6080 H   0  0  0  0  0  0  0  0  0  0  0  0
   -8.3310  -17.5300   36.9140 H   0  0  0  0  0  0  0  0  0  0  0  0
   -9.8820  -17.9550   38.8700 H   0  0  0  0  0  0  0  0  0  0  0  0
  -12.2450  -17.7280   39.9270 H   0  0  0  0  0  0  0  0  0  0  0  0
  -14.0060  -16.8070   39.0640 C   0  0  0  0  0  0  0  0  0  0  0  0
  -14.3300  -15.3450   39.1410 C   0  0  0  0  0  0  0  0  0  0  0  0
  -15.7580  -14.8880   39.0790 C   0  0  0  0  0  0  0  0  0  0  0  0
  -16.8610  -15.8950   38.9400 C   0  0  0  0  0  0  0  0  0  0  0  0
  -18.3520  -15.7450   38.8530 C   0  0  0  0  0  0  0  0  0  0  0  0
  -18.9480  -17.1150   38.7230 N   0  0  0  0  0  0  0  0  0  0  0  0
  -17.8270  -18.1120   38.7290 N   0  0  0  0  0  0  0  0  0  0  0  0
  -16.5370  -17.3570   38.8630 C   0  0  0  0  0  0  0  0  0  0  0  0
  -15.1100  -17.8140   38.9250 C   0  0  0  0  0  0  0  0  0  0  0  0
  -13.5710  -14.6520   39.2360 H   0  0  0  0  0  0  0  0  0  0  0  0
  -15.9810  -13.8820   39.1310 H   0  0  0  0  0  0  0  0  0  0  0  0
  -17.9220  -19.0890   38.6570 H   0  0  0  0  0  0  0  0  0  0  0  0
  -14.8870  -18.8200   38.8720 H   0  0  0  0  0  0  0  0  0  0  0  0
  -19.1110  -14.4520   38.8900 C   0  0  0  0  0  0  0  0  0  0  0  0
  -20.1790  -14.4560   38.8200 H   0  0  0  0  0  0  0  0  0  0  0  0
  -18.5850  -13.5250   38.9860 H   0  0  0  0  0  0  0  0  0  0  0  0
  -19.6530  -13.5300   38.9170 H   0  0  0  0  0  0  0  0  0  0  0  0
  -14.9700  -13.1870   33.4860 C   0  0  0  0  0  0  0  0  0  0  0  0
  -13.5430  -13.6430   33.5480 C   0  0  0  0  0  0  0  0  0  0  0  0
  -13.1850  -14.8870   34.3060 C   0  0  0  0  0  0  0  0  0  0  0  0
  -14.2560  -15.6750   35.0010 C   0  0  0  0  0  0  0  0  0  0  0  0
  -15.6830  -15.2190   34.9390 C   0  0  0  0  0  0  0  0  0  0  0  0
  -16.0410  -13.9750   34.1820 C   0  0  0  0  0  0  0  0  0  0  0  0
  -12.8060  -13.1010   33.0700 H   0  0  0  0  0  0  0  0  0  0  0  0
  -14.0100  -16.5310   35.5230 H   0  0  0  0  0  0  0  0  0  0  0  0
  -15.3280  -11.9420   32.7290 O   0  0  0  0  0  0  0  0  0  0  0  0
  -15.4050  -11.9720   31.2310 C   0  0  0  0  0  0  0  0  0  0  0  0
  -15.6600  -11.0850   30.6900 H   0  0  0  0  0  0  0  0  0  0  0  0
  -15.2060  -12.8820   30.7030 H   0  0  0  0  0  0  0  0  0  0  0  0
  -15.4600  -11.9940   30.1620 H   0  0  0  0  0  0  0  0  0  0  0  0
  -16.7530  -16.0070   35.6350 O   0  0  0  0  0  0  0  0  0  0  0  0
  -18.1920  -15.6070   35.4910 C   0  0  0  0  0  0  0  0  0  0  0  0
  -18.4550  -14.7600   34.8930 H   0  0  0  0  0  0  0  0  0  0  0  0
  -18.9560  -16.1700   35.9870 H   0  0  0  0  0  0  0  0  0  0  0  0
  -19.2190  -15.3220   35.3890 H   0  0  0  0  0  0  0  0  0  0  0  0
  -17.4680  -13.5180   34.1190 O   0  0  0  0  0  0  0  0  0  0  0  0
  -18.2350  -13.6260   32.8350 C   0  0  0  0  0  0  0  0  0  0  0  0
  -19.2530  -13.3010   32.7900 H   0  0  0  0  0  0  0  0  0  0  0  0
  -17.7630  -14.0290   31.9620 H   0  0  0  0  0  0  0  0  0  0  0  0
  -18.7810  -13.7030   31.9180 H   0  0  0  0  0  0  0  0  0  0  0  0
  1  2  1  0
  2  3  2  0
  2  8  1  0
  3  4  1  0
  4 10  1  0
  4  5  2  0
  5 11  1  0
  6  5  1  0
  6  7  1  0
  7 12  1  0
  8  6  2  0
  9  1  1  0
 13  7  1  0
 13 14  1  0
 14 22  1  0
 15 23  1  0
 15 14  2  0
 16 15  1  0
 17 26  1  0
 17 16  1  0
 18 19  1  0
 18 17  2  0
 19 20  1  0
 20 21  1  0
 20 16  2  0
 21 13  2  0
 24 19  1  0
 25 21  1  0
 26 29  1  0
 26 28  1  0
 27 26  1  0
 30 31  2  0
 30 35  1  0
 31 32  1  0
 32  1  1  0
 32 33  2  0
 33 37  1  0
 34 33  1  0
 34 43  1  0
 35 34  2  0
 36 31  1  0
 38 30  1  0
 39 38  1  0
 40 39  1  0
 41 39  1  0
 42 39  1  0
 44 43  1  0
 44 46  1  0
 45 44  1  0
 47 44  1  0
 48 35  1  0
 49 48  1  0
 50 49  1  0
 51 49  1  0
 52 49  1  0
M  END
>  <minimizedAffinity>  (245) 
-8.46741676

$$$$

     RDKit          3D

 44 44  0  0  0  0  0  0  0  0999 V2000
  -12.8270  -14.8760   34.7800 C   0  0  0  0  0  0  0  0  0  0  0  0
  -12.2160  -14.3450   33.5170 C   0  0  0  0  0  0  0  0  0  0  0  0
  -13.0700  -13.6240   32.5170 C   0  0  0  0  0  0  0  0  0  0  0  0
  -14.5350  -13.4340   32.7790 C   0  0  0  0  0  0  0  0  0  0  0  0
  -15.6200  -12.7700   31.9830 C   0  0  0  0  0  0  0  0  0  0  0  0
  -15.4520  -12.1020   30.6500 N   0  0  0  0  0  0  0  0  0  0  0  0
  -16.6350  -11.4770   29.9710 C   0  0  0  0  0  0  0  0  0  0  0  0
  -17.9840  -11.5210   30.6240 O   0  0  0  0  0  0  0  0  0  0  0  0
  -16.9000  -12.8900   32.7540 N   0  0  0  0  0  0  0  0  0  0  0  0
  -16.6070  -13.6290   34.0260 N   0  0  0  0  0  0  0  0  0  0  0  0
  -15.1460  -13.9650   34.0420 C   0  0  0  0  0  0  0  0  0  0  0  0
  -14.2920  -14.6860   35.0420 C   0  0  0  0  0  0  0  0  0  0  0  0
  -11.2090  -14.4760   33.3370 H   0  0  0  0  0  0  0  0  0  0  0  0
  -12.6500  -13.2590   31.6480 H   0  0  0  0  0  0  0  0  0  0  0  0
  -14.5660  -12.0750   30.2220 H   0  0  0  0  0  0  0  0  0  0  0  0
  -17.2600  -13.8540   34.7280 H   0  0  0  0  0  0  0  0  0  0  0  0
  -14.7120  -15.0520   35.9110 H   0  0  0  0  0  0  0  0  0  0  0  0
  -11.7230  -16.8170   38.0610 C   0  0  0  0  0  0  0  0  0  0  0  0
  -10.2660  -17.0390   37.7820 C   0  0  0  0  0  0  0  0  0  0  0  0
   -9.6630  -16.5400   36.5020 C   0  0  0  0  0  0  0  0  0  0  0  0
  -10.5170  -15.8190   35.5020 C   0  0  0  0  0  0  0  0  0  0  0  0
  -11.9730  -15.5970   35.7810 C   0  0  0  0  0  0  0  0  0  0  0  0
  -12.5770  -16.0960   37.0600 C   0  0  0  0  0  0  0  0  0  0  0  0
   -9.6780  -17.5350   38.4700 H   0  0  0  0  0  0  0  0  0  0  0  0
   -8.6600  -16.6930   36.3100 H   0  0  0  0  0  0  0  0  0  0  0  0
  -10.1020  -15.4760   34.6210 H   0  0  0  0  0  0  0  0  0  0  0  0
  -13.5790  -15.9430   37.2520 H   0  0  0  0  0  0  0  0  0  0  0  0
  -12.3260  -17.3150   39.3410 N   0  0  0  0  0  0  0  0  0  0  0  0
  -12.3210  -18.2780   39.5450 H   0  0  0  0  0  0  0  0  0  0  0  0
  -12.9370  -16.3470   40.3090 S   0  0  1  0  0  0  0  0  0  0  0  0
  -11.5730  -15.8170   40.6400 O   0  0  0  0  0  0  0  0  0  0  0  0
  -14.3010  -16.8760   39.9780 O   0  0  0  0  0  0  0  0  0  0  0  0
  -13.5480  -15.3780   41.2780 C   0  0  0  0  0  0  0  0  0  0  0  0
  -12.9240  -14.7050   41.8280 H   0  0  0  0  0  0  0  0  0  0  0  0
  -14.6090  -15.3600   41.4190 H   0  0  0  0  0  0  0  0  0  0  0  0
  -13.9840  -14.6870   41.9690 H   0  0  0  0  0  0  0  0  0  0  0  0
  -16.4670  -10.8100   28.6380 C   0  0  0  0  0  1  0  0  0  0  0  0
  -16.0380   -9.6260   27.8220 C   0  0  0  0  0  2  0  0  0  0  0  0
  -16.6060  -10.8370   27.1440 C   0  0  0  0  0  3  0  0  0  0  0  0
  -16.3480  -10.3340   27.6870 H   0  0  0  0  0  0  0  0  0  0  0  0
  -15.6270   -8.6410   27.7660 H   0  0  0  0  0  0  0  0  0  0  0  0
  -16.0280   -9.3900   26.7790 H   0  0  0  0  0  0  0  0  0  0  0  0
  -16.8980  -11.3480   26.2500 H   0  0  0  0  0  0  0  0  0  0  0  0
  -16.9780  -11.7860   27.4750 H   0  0  0  0  0  0  0  0  0  0  0  0
  1 12  1  0
  1 22  1  0
  2  1  2  0
  3  4  2  0
  3  2  1  0
  4 11  1  0
  5  9  2  0
  5  4  1  0
  6  5  1  0
  7  8  2  0
  7  6  1  0
  9 10  1  0
 10 11  1  0
 10 16  1  0
 11 12  2  0
 12 17  1  0
 13  2  1  0
 14  3  1  0
 15  6  1  0
 18 28  1  0
 19 18  1  0
 19 24  1  0
 20 19  2  0
 21 22  2  0
 21 20  1  0
 22 23  1  0
 23 27  1  0
 23 18  2  0
 25 20  1  0
 26 21  1  0
 28 29  1  0
 28 30  1  0
 30 31  2  0
 30 33  1  0
 32 30  2  0
 33 35  1  0
 33 34  1  0
 33 36  1  0
 37  7  1  0
 39 44  1  0
 39 40  1  0
 41 38  1  0
 42 38  1  0
 43 39  1  0
M  END
>  <minimizedAffinity>  (246) 
-9.58340263

$$$$

     RDKit          3D

 70 70  0  0  1  0  0  0  0  0999 V2000
  -13.6090  -15.7160   34.7530 C   0  0  0  0  0  0  0  0  0  0  0  0
  -12.5480  -16.2960   35.6400 C   0  0  0  0  0  0  0  0  0  0  0  0
  -11.1190  -15.8720   35.4760 C   0  0  0  0  0  0  0  0  0  0  0  0
  -10.7510  -14.8680   34.4240 C   0  0  0  0  0  0  0  0  0  0  0  0
  -11.8120  -14.2880   33.5360 C   0  0  0  0  0  0  0  0  0  0  0  0
  -13.2410  -14.7120   33.7010 C   0  0  0  0  0  0  0  0  0  0  0  0
  -12.8020  -16.9870   36.3640 H   0  0  0  0  0  0  0  0  0  0  0  0
   -9.7670  -14.5760   34.3110 H   0  0  0  0  0  0  0  0  0  0  0  0
  -11.5580  -13.5980   32.8130 H   0  0  0  0  0  0  0  0  0  0  0  0
  -10.0580  -16.4510   36.3640 N   0  0  0  0  0  2  0  0  0  0  0  0
   -9.0160  -15.5580   36.9690 C   0  0  0  0  0  3  0  0  0  0  0  0
   -7.9550  -16.1380   37.8570 C   0  0  0  0  0  2  0  0  0  0  0  0
   -7.9360  -17.6110   38.1390 N   0  0  0  0  0  1  0  0  0  0  0  0
   -8.9770  -18.5040   37.5340 C   0  0  0  0  0  3  0  0  0  0  0  0
  -10.0380  -17.9240   36.6460 C   0  0  0  0  0  2  0  0  0  0  0  0
   -9.0300  -14.5080   36.7680 H   0  0  0  0  0  0  0  0  0  0  0  0
   -8.2730  -14.9210   37.4010 H   0  0  0  0  0  0  0  0  0  0  0  0
   -7.2120  -15.5000   38.2890 H   0  0  0  0  0  0  0  0  0  0  0  0
   -7.1980  -16.5520   38.4910 H   0  0  0  0  0  0  0  0  0  0  0  0
   -8.9630  -19.5550   37.7350 H   0  0  0  0  0  0  0  0  0  0  0  0
   -9.7210  -19.1410   37.1020 H   0  0  0  0  0  0  0  0  0  0  0  0
  -10.7820  -18.5620   36.2140 H   0  0  0  0  0  0  0  0  0  0  0  0
  -10.7950  -17.5110   36.0130 H   0  0  0  0  0  0  0  0  0  0  0  0
   -6.8750  -18.1910   39.0270 C   0  0  0  0  0  3  0  0  0  0  0  0
   -6.1180  -18.6040   39.6600 H   0  0  0  0  0  0  0  0  0  0  0  0
   -6.3490  -17.3950   40.1850 C   0  0  0  0  0  0  0  0  0  0  0  0
   -6.7300  -16.4150   40.3780 H   0  0  0  0  0  0  0  0  0  0  0  0
   -5.5920  -17.8090   40.8180 H   0  0  0  0  0  0  0  0  0  0  0  0
   -5.9740  -16.8280   41.0110 H   0  0  0  0  0  0  0  0  0  0  0  0
   -6.3400  -19.5650   38.7570 C   0  0  0  0  0  0  0  0  0  0  0  0
   -5.5820  -19.9790   39.3900 H   0  0  0  0  0  0  0  0  0  0  0  0
   -6.7150  -20.1330   37.9300 H   0  0  0  0  0  0  0  0  0  0  0  0
   -5.9580  -20.5460   38.5640 H   0  0  0  0  0  0  0  0  0  0  0  0
  -14.3020  -14.1330   32.8130 N   0  0  0  0  0  0  0  0  0  0  0  0
  -15.6410  -13.7710   33.3830 C   0  0  0  0  0  0  0  0  0  0  0  0
  -16.7030  -13.1910   32.4950 N   0  0  0  0  0  0  0  0  0  0  0  0
  -18.0420  -12.8290   33.0650 C   0  0  0  0  0  3  0  0  0  0  0  0
  -18.3200  -13.0470   34.5230 C   0  0  0  0  0  0  0  0  0  0  0  0
  -19.5370  -12.7890   35.3620 C   0  0  0  0  0  0  0  0  0  0  0  0
  -19.2270  -13.2100   36.7680 C   0  0  0  0  0  0  0  0  0  0  0  0
  -17.8200  -13.7270   36.7980 N   0  0  0  0  0  0  0  0  0  0  0  0
  -17.2590  -13.6270   35.4110 C   0  0  0  0  0  0  0  0  0  0  0  0
  -15.9200  -13.9890   34.8410 N   0  0  0  0  0  2  0  0  0  0  0  0
  -14.1190  -13.9900   31.8570 H   0  0  0  0  0  0  0  0  0  0  0  0
  -20.4290  -12.3920   35.0300 H   0  0  0  0  0  0  0  0  0  0  0  0
  -19.8690  -13.1530   37.5740 H   0  0  0  0  0  0  0  0  0  0  0  0
  -17.3470  -14.0720   37.5900 H   0  0  0  0  0  0  0  0  0  0  0  0
  -19.1030  -12.2500   32.1770 N   0  0  0  0  0  0  0  0  0  0  0  0
  -19.8930  -11.8160   32.5730 H   0  0  0  0  0  0  0  0  0  0  0  0
  -18.9600  -12.3310   30.6870 C   0  0  0  0  0  0  0  0  0  0  0  0
  -19.7950  -13.3020   29.9050 C   0  0  0  0  0  0  0  0  0  0  0  0
  -19.6520  -13.3830   28.4140 C   0  0  0  0  0  0  0  0  0  0  0  0
  -18.6750  -12.4940   27.7050 C   0  0  0  0  0  0  0  0  0  0  0  0
  -17.8400  -11.5230   28.4860 C   0  0  0  0  0  0  0  0  0  0  0  0
  -16.8630  -10.6330   27.7770 N   0  0  0  0  0  0  0  0  0  0  0  0
  -16.0280   -9.6630   28.5580 C   0  0  0  0  0  0  0  0  0  0  0  0
  -16.1710   -9.5810   30.0490 C   0  0  0  0  0  0  0  0  0  0  0  0
  -17.1480  -10.4710   30.7580 C   0  0  0  0  0  0  0  0  0  0  0  0
  -17.9830  -11.4420   29.9770 C   0  0  0  0  0  0  0  0  0  0  0  0
  -20.4680  -13.9140   30.3930 H   0  0  0  0  0  0  0  0  0  0  0  0
  -20.2270  -14.0510   27.8760 H   0  0  0  0  0  0  0  0  0  0  0  0
  -18.5770  -12.5500   26.6790 H   0  0  0  0  0  0  0  0  0  0  0  0
  -15.3550   -9.0500   28.0700 H   0  0  0  0  0  0  0  0  0  0  0  0
  -15.5960   -8.9130   30.5870 H   0  0  0  0  0  0  0  0  0  0  0  0
  -17.2460  -10.4150   31.7840 H   0  0  0  0  0  0  0  0  0  0  0  0
  -15.0390  -16.1400   34.9170 O   0  0  0  0  0  0  0  0  0  0  0  0
  -15.4980  -16.7430   36.2110 C   0  0  0  0  0  0  0  0  0  0  0  0
  -14.8060  -16.8710   37.0170 H   0  0  0  0  0  0  0  0  0  0  0  0
  -16.5180  -17.0460   36.3280 H   0  0  0  0  0  0  0  0  0  0  0  0
  -15.8260  -17.1740   37.1350 H   0  0  0  0  0  0  0  0  0  0  0  0
  1 66  1  0
  1  2  1  0
  2  7  1  0
  3  2  2  0
  3 10  1  0
  4  3  1  0
  5  6  1  0
  5  4  2  0
  6  1  2  0
  8  4  1  0
  9  5  1  0
 10 11  1  0
 11 17  1  0
 12 18  1  0
 12 19  1  0
 14 20  1  0
 14 13  1  0
 16 11  1  0
 21 14  1  0
 22 15  1  0
 23 15  1  0
 24 25  1  0
 24 26  1  0
 26 27  1  0
 26 28  1  0
 26 29  1  0
 30 24  1  0
 30 31  1  0
 32 30  1  0
 33 30  1  0
 34 35  1  0
 34  6  1  0
 35 43  1  0
 36 37  1  0
 36 35  2  0
 37 48  1  0
 37 38  1  0
 38 39  1  0
 38 42  2  0
 39 40  2  0
 40 41  1  0
 40 46  1  0
 41 47  1  0
 42 41  1  0
 43 42  1  0
 44 34  1  0
 45 39  1  0
 48 49  1  0
 50 48  1  0
 51 60  1  0
 51 50  2  0
 52 51  1  0
 53 52  2  0
 53 54  1  0
 54 59  1  0
 55 54  2  0
 55 56  1  0
 56 57  2  0
 57 64  1  0
 57 58  1  0
 58 65  1  0
 59 50  1  0
 59 58  2  0
 61 52  1  0
 62 53  1  0
 63 56  1  0
 66 67  1  0
 67 69  1  0
 67 68  1  0
 67 70  1  0
M  END
>  <minimizedAffinity>  (247) 
-3.66398263

$$$$

     RDKit          3D

 37 40  0  0  1  0  0  0  0  0999 V2000
  -13.7300  -15.7370   36.1250 C   0  0  0  0  0  0  0  0  0  0  0  0
  -14.8660  -15.0700   35.4070 C   0  0  0  0  0  3  0  0  0  0  0  0
  -14.7510  -14.2050   34.1880 C   0  0  0  0  0  0  0  0  0  0  0  0
  -13.4810  -13.8550   33.4710 O   0  0  0  0  0  0  0  0  0  0  0  0
  -16.1310  -13.7510   33.8100 N   0  0  0  0  0  0  0  0  0  0  0  0
  -17.0970  -14.3360   34.7970 C   0  0  0  0  0  0  0  0  0  0  0  0
  -18.5880  -14.2320   34.9240 C   0  0  0  0  0  0  0  0  0  0  0  0
  -19.2970  -14.9430   36.0380 C   0  0  0  0  0  0  0  0  0  0  0  0
  -18.5160  -15.7580   37.0250 C   0  0  0  0  0  0  0  0  0  0  0  0
  -18.9370  -16.5640   38.2190 N   0  0  0  0  0  0  0  0  0  0  0  0
  -17.7050  -17.1660   38.8290 C   0  0  0  0  0  0  0  0  0  0  0  0
  -16.5250  -16.7330   38.0130 S   0  0  0  0  0  0  0  0  0  0  0  0
  -17.0250  -15.8620   36.8980 C   0  0  0  0  0  0  0  0  0  0  0  0
  -16.3160  -15.1510   35.7840 C   0  0  0  0  0  0  0  0  0  0  0  0
  -13.9150  -16.3150   36.9590 H   0  0  0  0  0  0  0  0  0  0  0  0
  -16.3610  -13.1710   33.0490 H   0  0  0  0  0  0  0  0  0  0  0  0
  -19.1260  -13.6710   34.2450 H   0  0  0  0  0  0  0  0  0  0  0  0
  -20.3240  -14.8710   36.1260 H   0  0  0  0  0  0  0  0  0  0  0  0
  -17.6770  -17.7720   39.6630 H   0  0  0  0  0  0  0  0  0  0  0  0
  -12.3250  -15.5640   35.6290 N   0  0  0  0  0  4  0  0  0  0  0  0
  -12.1540  -15.0630   34.8000 H   0  0  0  0  0  0  0  0  0  0  0  0
   -8.8910  -17.3380   37.9330 C   0  0  0  0  0  0  0  0  0  0  0  0
  -10.2000  -17.0790   38.6180 C   0  0  0  0  0  0  0  0  0  0  0  0
  -11.3440  -16.4880   37.8500 C   0  0  0  0  0  0  0  0  0  0  0  0
  -11.1800  -16.1550   36.3970 C   0  0  0  0  0  0  0  0  0  0  0  0
   -9.8710  -16.4140   35.7120 C   0  0  0  0  0  0  0  0  0  0  0  0
   -8.7270  -17.0060   36.4800 C   0  0  0  0  0  0  0  0  0  0  0  0
  -10.3130  -17.3080   39.6180 H   0  0  0  0  0  0  0  0  0  0  0  0
  -12.2450  -16.3100   38.3220 H   0  0  0  0  0  0  0  0  0  0  0  0
   -9.7580  -16.1850   34.7120 H   0  0  0  0  0  0  0  0  0  0  0  0
   -7.8260  -17.1840   36.0080 H   0  0  0  0  0  0  0  0  0  0  0  0
   -7.7460  -17.9300   38.7010 S   0  0  1  0  0  0  0  0  0  0  0  0
   -8.4930  -19.2250   38.8170 O   0  0  0  0  0  0  0  0  0  0  0  0
   -6.9990  -16.6340   38.5850 O   0  0  0  0  0  0  0  0  0  0  0  0
   -6.6020  -18.5210   39.4690 N   0  0  0  0  0  0  0  0  0  0  0  0
   -6.6520  -19.4850   39.7990 H   0  0  0  0  0  0  0  0  0  0  0  0
   -5.7720  -17.9590   39.6630 H   0  0  0  0  0  0  0  0  0  0  0  0
  1 15  1  0
  2 14  1  0
  2  1  1  0
  3  2  1  0
  4  3  2  0
  5  3  1  0
  5  6  1  0
  6  7  2  0
  6 14  1  0
  7  8  1  0
  8 18  1  0
  8  9  2  0
  9 10  1  0
 10 11  2  0
 11 19  1  0
 12 11  1  0
 13  9  1  0
 13 12  1  0
 14 13  2  0
 16  5  1  0
 17  7  1  0
 20  1  2  0
 20 25  1  0
 21 20  1  0
 22 23  1  0
 22 32  1  0
 23 28  1  0
 24 29  1  0
 24 23  2  0
 25 24  1  0
 26 25  2  0
 26 27  1  0
 27 22  2  0
 30 26  1  0
 31 27  1  0
 32 33  2  0
 32 35  1  0
 34 32  2  0
 35 37  1  0
 35 36  1  0
M  END
>  <minimizedAffinity>  (248) 
-9.05128098

$$$$

     RDKit          3D

 47 48  0  0  0  0  0  0  0  0999 V2000
  -15.9530  -16.0290   38.4690 C   0  0  0  0  0  0  0  0  0  0  0  0
  -14.8190  -16.8380   37.9130 C   0  0  0  0  0  0  0  0  0  0  0  0
  -13.6690  -16.7470   38.8720 C   0  0  0  0  0  3  0  0  0  0  0  0
  -14.0930  -15.8810   40.0220 C   0  0  0  0  0  0  0  0  0  0  0  0
  -15.5040  -15.4370   39.7730 S   0  0  0  0  0  0  0  0  0  0  0  0
  -14.8280  -17.3650   37.0260 H   0  0  0  0  0  0  0  0  0  0  0  0
  -17.2010  -14.1970   34.1330 C   0  0  0  0  0  0  0  0  0  0  0  0
  -18.6830  -14.2010   33.9040 C   0  0  0  0  0  0  0  0  0  0  0  0
  -19.6040  -14.7350   34.9610 C   0  0  0  0  0  0  0  0  0  0  0  0
  -19.0420  -15.2650   36.2470 C   0  0  0  0  0  0  0  0  0  0  0  0
  -19.6970  -15.8510   37.4620 N   0  0  0  0  0  0  0  0  0  0  0  0
  -18.6190  -16.2080   38.4430 C   0  0  0  0  0  0  0  0  0  0  0  0
  -17.2980  -15.8430   37.8330 N   0  0  0  0  0  0  0  0  0  0  0  0
  -17.5600  -15.2600   36.4760 C   0  0  0  0  0  0  0  0  0  0  0  0
  -16.6390  -14.7260   35.4190 C   0  0  0  0  0  0  0  0  0  0  0  0
  -19.0700  -13.8370   33.0190 H   0  0  0  0  0  0  0  0  0  0  0  0
  -20.6240  -14.7390   34.8030 H   0  0  0  0  0  0  0  0  0  0  0  0
  -18.7620  -16.6310   39.3740 H   0  0  0  0  0  0  0  0  0  0  0  0
  -15.6190  -14.7230   35.5770 H   0  0  0  0  0  0  0  0  0  0  0  0
  -16.2800  -13.6620   33.0760 O   0  0  0  0  0  0  0  0  0  0  0  0
  -14.8510  -13.3530   33.4120 C   0  0  0  0  0  0  0  0  0  0  0  0
  -14.4890  -13.5140   34.4060 H   0  0  0  0  0  0  0  0  0  0  0  0
  -14.1950  -12.9720   32.6580 H   0  0  0  0  0  0  0  0  0  0  0  0
  -13.8320  -13.1330   33.6520 H   0  0  0  0  0  0  0  0  0  0  0  0
  -13.2530  -15.5220   41.2110 C   0  0  0  0  0  0  0  0  0  0  0  0
  -13.2440  -14.1130   41.7250 N   0  0  0  0  0  0  0  0  0  0  0  0
  -12.4210  -16.5710   41.8870 O   0  0  0  0  0  0  0  0  0  0  0  0
  -13.7900  -13.4230   41.2820 H   0  0  0  0  0  0  0  0  0  0  0  0
  -12.6920  -13.8770   42.5060 H   0  0  0  0  0  0  0  0  0  0  0  0
  -12.3320  -17.4060   38.7110 O   0  0  0  0  0 15  0  0  0  0  0  0
  -11.1490  -16.6020   38.2630 C   0  0  0  0  0  3  0  0  0  0  0  0
  -11.2880  -16.8150   39.3010 H   0  0  0  0  0  0  0  0  0  0  0  0
  -10.9540  -16.3030   36.8050 C   0  0  0  0  0  0  0  0  0  0  0  0
  -11.8850  -15.3610   36.1020 C   0  0  0  0  0  0  0  0  0  0  0  0
  -11.6890  -15.0620   34.6440 C   0  0  0  0  0  0  0  0  0  0  0  0
  -10.5640  -15.7060   33.8910 C   0  0  0  0  0  0  0  0  0  0  0  0
   -9.6320  -16.6490   34.5950 C   0  0  0  0  0  0  0  0  0  0  0  0
   -9.8280  -16.9470   36.0520 C   0  0  0  0  0  0  0  0  0  0  0  0
   -8.8970  -17.8900   36.7550 Cl  0  0  0  0  0  0  0  0  0  0  0  0
  -12.6590  -14.9180   36.6190 H   0  0  0  0  0  0  0  0  0  0  0  0
  -12.3300  -14.4140   34.1610 H   0  0  0  0  0  0  0  0  0  0  0  0
  -10.4290  -15.5010   32.8890 H   0  0  0  0  0  0  0  0  0  0  0  0
   -8.8580  -17.0920   34.0760 H   0  0  0  0  0  0  0  0  0  0  0  0
  -10.1610  -16.0950   39.2710 C   0  0  0  0  0  0  0  0  0  0  0  0
  -10.2990  -16.3080   40.3100 H   0  0  0  0  0  0  0  0  0  0  0  0
   -9.3160  -15.5210   38.9500 H   0  0  0  0  0  0  0  0  0  0  0  0
   -9.4550  -15.7340   39.9900 H   0  0  0  0  0  0  0  0  0  0  0  0
  1  5  1  0
  2  1  2  0
  2  3  1  0
  3  4  2  0
  4 25  1  0
  5  4  1  0
  6  2  1  0
  7 15  1  0
  8  7  2  0
  8  9  1  0
  9 10  2  0
 10 14  1  0
 10 11  1  0
 11 12  2  0
 12 18  1  0
 13 12  1  0
 13  1  1  0
 14 13  1  0
 15 19  1  0
 15 14  2  0
 16  8  1  0
 17  9  1  0
 20 21  1  0
 20  7  1  0
 21 24  1  0
 21 22  1  0
 23 21  1  0
 25 26  1  0
 25 27  2  0
 26 29  1  0
 28 26  1  0
 31 44  1  0
 31 32  1  0
 33 31  1  0
 34 40  1  0
 34 33  1  0
 35 34  2  0
 36 37  2  0
 36 35  1  0
 37 38  1  0
 38 39  1  0
 38 33  2  0
 41 35  1  0
 42 36  1  0
 43 37  1  0
 44 47  1  0
 44 45  1  0
 46 44  1  0
M  END
>  <minimizedAffinity>  (249) 
-10.221652

$$$$

     RDKit          3D

 70 69  0  0  1  0  0  0  0  0999 V2000
  -12.9620  -15.0310   34.6880 C   0  0  0  0  0  0  0  0  0  0  0  0
  -12.9770  -15.3990   36.1420 C   0  0  0  0  0  0  0  0  0  0  0  0
  -11.7410  -15.9490   36.7890 C   0  0  0  0  0  3  0  0  0  0  0  0
  -10.4890  -16.1310   35.9830 C   0  0  0  0  0  0  0  0  0  0  0  0
  -10.4740  -15.7620   34.5290 C   0  0  0  0  0  0  0  0  0  0  0  0
  -11.7100  -15.2120   33.8820 C   0  0  0  0  0  0  0  0  0  0  0  0
   -9.2530  -16.6810   36.6300 C   0  0  0  0  0  3  0  0  0  0  0  0
   -9.2680  -17.0500   38.0840 C   0  0  0  0  0  2  0  0  0  0  0  0
  -10.5200  -16.8680   38.8910 C   0  0  0  0  0  2  0  0  0  0  0  0
  -11.7560  -16.3180   38.2430 N   0  0  0  0  0 15  0  0  0  0  0  0
  -13.0080  -16.1360   39.0500 C   0  0  0  0  0  2  0  0  0  0  0  0
  -14.2440  -15.5860   38.4030 O   0  0  0  0  0  1  0  0  0  0  0  0
  -13.8380  -15.2740   36.6970 H   0  0  0  0  0  0  0  0  0  0  0  0
   -9.6130  -15.8870   33.9740 H   0  0  0  0  0  0  0  0  0  0  0  0
   -8.3600  -16.8110   36.0550 H   0  0  0  0  0  0  0  0  0  0  0  0
   -8.3710  -17.0740   37.0920 H   0  0  0  0  0  0  0  0  0  0  0  0
   -8.3860  -17.4420   38.5460 H   0  0  0  0  0  0  0  0  0  0  0  0
   -9.2790  -17.3120   39.1210 H   0  0  0  0  0  0  0  0  0  0  0  0
  -10.5310  -17.1310   39.9280 H   0  0  0  0  0  0  0  0  0  0  0  0
  -11.4120  -16.7390   39.4660 H   0  0  0  0  0  0  0  0  0  0  0  0
  -19.3320  -13.6800   34.0980 N   0  0  0  0  0  0  0  0  0  0  0  0
  -18.0950  -14.2300   34.7460 C   0  0  0  0  0  3  0  0  0  0  0  0
  -16.7650  -14.0800   34.0700 N   0  0  0  0  0  0  0  0  0  0  0  0
  -15.5290  -14.6300   34.7170 C   0  0  0  0  0  0  0  0  0  0  0  0
  -14.1980  -14.4800   34.0410 N   0  0  0  0  0  0  0  0  0  0  0  0
  -15.6230  -15.3300   36.0400 N   0  0  0  0  0  2  0  0  0  0  0  0
  -16.9540  -15.4800   36.7160 C   0  0  0  0  0  0  0  0  0  0  0  0
  -17.3540  -16.1160   38.0140 N   0  0  0  0  0  0  0  0  0  0  0  0
  -18.8380  -15.9600   38.1690 C   0  0  0  0  0  0  0  0  0  0  0  0
  -19.3540  -15.2260   36.9670 C   0  0  0  0  0  0  0  0  0  0  0  0
  -18.1900  -14.9300   36.0690 C   0  0  0  0  0  0  0  0  0  0  0  0
  -20.2050  -13.7780   34.5420 H   0  0  0  0  0  0  0  0  0  0  0  0
  -14.1360  -14.0210   33.1730 H   0  0  0  0  0  0  0  0  0  0  0  0
  -16.7490  -16.5590   38.6520 H   0  0  0  0  0  0  0  0  0  0  0  0
  -19.4040  -16.2970   38.9630 H   0  0  0  0  0  0  0  0  0  0  0  0
  -20.3380  -14.9700   36.7880 H   0  0  0  0  0  0  0  0  0  0  0  0
  -18.9220  -11.5140   32.7220 C   0  0  0  0  0  0  0  0  0  0  0  0
  -18.8280  -10.8140   31.3990 N   0  0  0  0  0  0  0  0  0  0  0  0
  -19.0480  -11.5800   30.1280 C   0  0  0  0  0  0  0  0  0  0  0  0
  -19.3630  -13.0460   30.1810 C   0  0  0  0  0  0  0  0  0  0  0  0
  -19.4580  -13.7450   31.5040 C   0  0  0  0  0  0  0  0  0  0  0  0
  -19.2370  -12.9800   32.7750 C   0  0  0  0  0  0  0  0  0  0  0  0
  -18.9830  -11.0980   29.2180 H   0  0  0  0  0  0  0  0  0  0  0  0
  -19.5150  -13.5720   29.3060 H   0  0  0  0  0  0  0  0  0  0  0  0
  -19.6750  -14.7540   31.5400 H   0  0  0  0  0  0  0  0  0  0  0  0
  -19.7940  -10.6630   35.0170 N   0  0  0  0  0  0  0  0  0  0  0  0
  -18.7010  -10.7480   33.9930 C   0  0  0  0  0  0  0  0  0  0  0  0
  -17.3880  -10.0680   34.2400 O   0  0  0  0  0  0  0  0  0  0  0  0
  -20.6570  -11.1100   34.8550 H   0  0  0  0  0  0  0  0  0  0  0  0
  -19.5740   -9.8980   36.2880 C   0  0  0  0  0  0  0  0  0  0  0  0
  -18.6360   -9.4120   36.4640 H   0  0  0  0  0  0  0  0  0  0  0  0
  -20.3540   -9.8370   37.0180 H   0  0  0  0  0  0  0  0  0  0  0  0
  -19.4160   -9.3520   37.1940 H   0  0  0  0  0  0  0  0  0  0  0  0
  -13.0230  -16.5050   40.5040 C   0  0  0  0  0  0  0  0  0  0  0  0
  -12.4230  -17.3190   40.8560 H   0  0  0  0  0  0  0  0  0  0  0  0
  -13.0340  -16.7680   41.5410 H   0  0  0  0  0  0  0  0  0  0  0  0
  -13.8780  -15.7330   41.4640 N   0  0  0  0  0  0  0  0  0  0  0  0
  -15.2000  -16.2870   41.9040 C   0  0  0  0  0  0  0  0  0  0  0  0
  -15.5340  -17.2340   41.5330 H   0  0  0  0  0  0  0  0  0  0  0  0
  -15.8100  -15.7370   42.5890 H   0  0  0  0  0  0  0  0  0  0  0  0
  -16.1440  -16.6830   42.2180 H   0  0  0  0  0  0  0  0  0  0  0  0
  -13.4110  -14.4060   41.9850 C   0  0  0  0  0  0  0  0  0  0  0  0
  -14.0210  -13.8550   42.6700 H   0  0  0  0  0  0  0  0  0  0  0  0
  -12.4680  -14.0100   41.6710 H   0  0  0  0  0  0  0  0  0  0  0  0
  -13.0780  -13.4590   42.3560 H   0  0  0  0  0  0  0  0  0  0  0  0
  -11.6950  -14.8440   32.4280 O   0  0  0  0  0  0  0  0  0  0  0  0
  -12.7760  -13.9700   31.8640 C   0  0  0  0  0  0  0  0  0  0  0  0
  -12.7650  -13.7080   30.8270 H   0  0  0  0  0  0  0  0  0  0  0  0
  -13.5590  -13.6100   32.4990 H   0  0  0  0  0  0  0  0  0  0  0  0
  -13.5480  -13.3470   31.4620 H   0  0  0  0  0  0  0  0  0  0  0  0
  1  2  1  0
  2 13  1  0
  2  3  2  0
  4  7  1  0
  4  3  1  0
  5  4  2  0
  6  5  1  0
  6  1  2  0
  7 16  1  0
  8 17  1  0
  8 18  1  0
  9 20  1  0
  9 19  1  0
 11 54  1  0
 12 11  1  0
 14  5  1  0
 15  7  1  0
 21 32  1  0
 22 21  1  0
 22 31  1  0
 23 24  2  0
 23 22  1  0
 24 26  1  0
 25  1  1  0
 25 24  1  0
 26 27  1  0
 27 28  1  0
 28 29  1  0
 28 34  1  0
 29 35  1  0
 30 29  2  0
 31 27  2  0
 31 30  1  0
 33 25  1  0
 36 30  1  0
 37 42  1  0
 37 47  1  0
 38 37  2  0
 39 40  2  0
 39 38  1  0
 40 41  1  0
 41 45  1  0
 41 42  2  0
 42 21  1  0
 43 39  1  0
 44 40  1  0
 46 50  1  0
 47 48  2  0
 47 46  1  0
 49 46  1  0
 50 51  1  0
 50 52  1  0
 50 53  1  0
 54 55  1  0
 54 57  1  0
 54 56  1  0
 57 58  1  0
 57 62  1  0
 58 61  1  0
 58 60  1  0
 59 58  1  0
 62 65  1  0
 62 63  1  0
 64 62  1  0
 66  6  1  0
 67 66  1  0
 67 69  1  0
 68 67  1  0
 70 67  1  0
M  END
>  <minimizedAffinity>  (250) 
-8.78401184

$$$$

     RDKit          3D

 35 37  0  0  0  0  0  0  0  0999 V2000
  -14.8590  -13.4780   33.2870 O   0  0  0  0  0  0  0  0  0  0  0  0
  -13.6500  -14.2750   33.6790 C   0  0  0  0  0  0  0  0  0  0  0  0
  -12.6560  -14.8900   32.7380 N   0  0  0  0  0  0  0  0  0  0  0  0
  -11.6150  -15.5920   33.5580 C   0  0  0  0  0  0  0  0  0  0  0  0
  -10.4320  -16.3430   33.0250 O   0  0  0  0  0  0  0  0  0  0  0  0
  -11.9660  -15.4120   35.0060 C   0  0  0  0  0  0  0  0  0  0  0  0
  -13.2230  -14.5980   35.0800 C   0  0  0  0  0  0  0  0  0  0  0  0
  -12.6830  -14.8400   31.7550 H   0  0  0  0  0  0  0  0  0  0  0  0
  -11.1940  -15.9510   36.1730 C   0  0  0  0  0  0  0  0  0  0  0  0
  -11.8270  -16.9520   37.0940 C   0  0  0  0  0  0  0  0  0  0  0  0
  -11.0550  -17.4910   38.2610 C   0  0  0  0  0  0  0  0  0  0  0  0
   -9.6500  -17.0300   38.5080 C   0  0  0  0  0  0  0  0  0  0  0  0
   -9.0160  -16.0290   37.5880 C   0  0  0  0  0  0  0  0  0  0  0  0
   -7.6100  -15.5680   37.8350 Cl  0  0  0  0  0  0  0  0  0  0  0  0
   -9.7880  -15.4900   36.4200 C   0  0  0  0  0  0  0  0  0  0  0  0
  -12.7950  -17.2690   36.9240 H   0  0  0  0  0  0  0  0  0  0  0  0
  -11.4920  -18.1790   38.8950 H   0  0  0  0  0  0  0  0  0  0  0  0
   -9.1190  -17.4010   39.3120 H   0  0  0  0  0  0  0  0  0  0  0  0
   -9.3520  -14.8020   35.7870 H   0  0  0  0  0  0  0  0  0  0  0  0
  -13.9300  -14.1810   36.3360 N   0  0  0  0  0  0  0  0  0  0  0  0
  -13.7150  -13.3190   36.7580 H   0  0  0  0  0  0  0  0  0  0  0  0
  -14.9650  -15.0780   36.9480 C   0  0  0  0  0  0  0  0  0  0  0  0
  -16.3510  -15.1230   36.3760 C   0  0  0  0  0  0  0  0  0  0  0  0
  -17.3860  -16.0190   36.9870 C   0  0  0  0  0  0  0  0  0  0  0  0
  -17.0360  -16.8710   38.1720 C   0  0  0  0  0  0  0  0  0  0  0  0
  -18.0710  -17.7670   38.7850 Cl  0  0  0  0  0  0  0  0  0  0  0  0
  -15.6500  -16.8250   38.7440 C   0  0  0  0  0  0  0  0  0  0  0  0
  -14.6150  -15.9290   38.1320 C   0  0  0  0  0  0  0  0  0  0  0  0
  -16.5930  -14.5380   35.5610 H   0  0  0  0  0  0  0  0  0  0  0  0
  -18.3400  -16.0510   36.5940 H   0  0  0  0  0  0  0  0  0  0  0  0
  -13.6610  -15.8970   38.5260 H   0  0  0  0  0  0  0  0  0  0  0  0
  -15.2990  -17.6760   39.9290 C   0  0  0  0  0  0  0  0  0  0  0  0
  -15.1510  -17.0510   41.2840 O   0  0  0  0  0  0  0  0  0  0  0  0
  -15.0960  -19.1530   39.7580 O   0  0  0  0  0  0  0  0  0  0  0  0
  -15.1890  -19.5430   38.9110 H   0  0  0  0  0  0  0  0  0  0  0  0
  1  2  2  0
  2  7  1  0
  3  4  1  0
  3  2  1  0
  4  6  1  0
  5  4  2  0
  6  7  2  0
  6  9  1  0
  7 20  1  0
  8  3  1  0
  9 15  2  0
  9 10  1  0
 10 11  2  0
 11 12  1  0
 11 17  1  0
 12 18  1  0
 13 14  1  0
 13 12  2  0
 15 13  1  0
 16 10  1  0
 19 15  1  0
 20 21  1  0
 20 22  1  0
 22 28  1  0
 23 22  2  0
 23 24  1  0
 24 25  2  0
 25 27  1  0
 25 26  1  0
 27 32  1  0
 28 31  1  0
 28 27  2  0
 29 23  1  0
 30 24  1  0
 32 33  2  0
 34 32  1  0
 35 34  1  0
M  END
>  <minimizedAffinity>  (251) 
-9.47317028

$$$$

     RDKit          3D

 36 35  0  0  0  0  0  0  0  0999 V2000
  -15.8160  -12.8190   32.0510 O   0  0  0  0  0  1  0  0  0  0  0  0
  -16.4720  -13.3530   33.2910 C   0  0  0  0  0  2  0  0  0  0  0  0
  -15.6550  -14.0720   34.3220 N   0  0  0  0  0  0  0  0  0  0  0  0
  -14.1810  -14.2590   34.1150 C   0  0  0  0  0  0  0  0  0  0  0  0
  -13.3900  -13.7830   32.9320 N   0  0  0  0  0  0  0  0  0  0  0  0
  -11.9590  -14.1850   33.1400 N   0  0  0  0  0  0  0  0  0  0  0  0
  -11.8670  -14.9080   34.4500 C   0  0  0  0  0  0  0  0  0  0  0  0
  -10.7090  -15.5300   35.1730 N   0  0  0  0  0  0  0  0  0  0  0  0
  -10.9250  -16.1990   36.4990 C   0  0  0  0  0  0  0  0  0  0  0  0
  -12.2980  -16.2450   37.1010 C   0  0  0  0  0  0  0  0  0  0  0  0
  -12.5130  -16.9130   38.4260 Br  0  0  0  0  0  0  0  0  0  0  0  0
  -13.4550  -15.6220   36.3780 C   0  0  0  0  0  0  0  0  0  0  0  0
  -13.2400  -14.9540   35.0530 C   0  0  0  0  0  0  0  0  0  0  0  0
  -16.0860  -14.4220   35.1350 H   0  0  0  0  0  0  0  0  0  0  0  0
  -11.2130  -14.0040   32.5240 H   0  0  0  0  0  0  0  0  0  0  0  0
  -14.4000  -15.6540   36.7930 H   0  0  0  0  0  0  0  0  0  0  0  0
   -9.7670  -16.8210   37.2220 C   0  0  0  0  0  0  0  0  0  0  0  0
   -8.8190  -15.9600   38.0020 C   0  0  0  0  0  0  0  0  0  0  0  0
   -7.6620  -16.5830   38.7250 C   0  0  0  0  0  0  0  0  0  0  0  0
   -7.4530  -18.0670   38.6670 C   0  0  0  0  0  0  0  0  0  0  0  0
   -8.4010  -18.9280   37.8870 C   0  0  0  0  0  0  0  0  0  0  0  0
   -9.5580  -18.3060   37.1640 C   0  0  0  0  0  0  0  0  0  0  0  0
   -8.9630  -14.9390   38.0410 H   0  0  0  0  0  0  0  0  0  0  0  0
   -7.0090  -15.9900   39.2620 H   0  0  0  0  0  0  0  0  0  0  0  0
   -8.2570  -19.9490   37.8480 H   0  0  0  0  0  0  0  0  0  0  0  0
  -10.2100  -18.8980   36.6280 H   0  0  0  0  0  0  0  0  0  0  0  0
   -6.2950  -18.6890   39.3900 O   0  0  0  0  0  0  0  0  0  0  0  0
   -5.7020  -18.1520   39.8780 H   0  0  0  0  0  0  0  0  0  0  0  0
  -17.9470  -13.1660   33.4980 C   0  0  0  0  0 15  0  0  0  0  0  0
  -19.0860  -12.4120   34.1170 C   0  0  0  0  0  3  0  0  0  0  0  0
  -19.3590  -13.5950   33.2380 C   0  0  0  0  0  2  0  0  0  0  0  0
  -18.9970  -13.0320   33.6460 H   0  0  0  0  0  0  0  0  0  0  0  0
  -19.4420  -11.6140   34.7350 H   0  0  0  0  0  0  0  0  0  0  0  0
  -20.1510  -12.5010   34.0980 H   0  0  0  0  0  0  0  0  0  0  0  0
  -20.0550  -14.2600   32.7690 H   0  0  0  0  0  0  0  0  0  0  0  0
  -18.7540  -14.2870   32.6900 H   0  0  0  0  0  0  0  0  0  0  0  0
  1  2  1  0
  2  3  1  0
  3 14  1  0
  4  3  1  0
  4 13  1  0
  5  6  1  0
  5  4  2  0
  6  7  1  0
  7 13  2  0
  7  8  1  0
  8  9  2  0
  9 10  1  0
  9 17  1  0
 10 11  1  0
 12 16  1  0
 12 10  2  0
 13 12  1  0
 15  6  1  0
 17 18  1  0
 18 23  1  0
 18 19  2  0
 19 24  1  0
 20 19  1  0
 20 27  1  0
 21 20  2  0
 22 17  2  0
 22 21  1  0
 25 21  1  0
 26 22  1  0
 27 28  1  0
 30 33  1  0
 32 30  1  0
 34 30  1  0
 35 31  1  0
 36 31  1  0
M  END
>  <minimizedAffinity>  (252) 
-9.81794834

$$$$

     RDKit          3D

 45 47  0  0  0  0  0  0  0  0999 V2000
  -15.8940  -16.4000   37.8090 C   0  0  0  0  0  0  0  0  0  0  0  0
  -17.3630  -16.1930   37.5890 C   0  0  0  0  0  0  0  0  0  0  0  0
  -17.8470  -15.5150   36.3410 C   0  0  0  0  0  0  0  0  0  0  0  0
  -16.8610  -15.0440   35.3140 C   0  0  0  0  0  0  0  0  0  0  0  0
  -15.3920  -15.2510   35.5340 C   0  0  0  0  0  0  0  0  0  0  0  0
  -14.9080  -15.9290   36.7820 C   0  0  0  0  0  0  0  0  0  0  0  0
  -18.8580  -15.3730   36.1900 H   0  0  0  0  0  0  0  0  0  0  0  0
  -14.7130  -14.9270   34.8270 H   0  0  0  0  0  0  0  0  0  0  0  0
  -17.3440  -14.3660   34.0660 C   0  0  0  0  0  0  0  0  0  0  0  0
  -16.4550  -13.3960   33.3470 C   0  0  0  0  0  0  0  0  0  0  0  0
  -16.9380  -12.7180   32.1000 C   0  0  0  0  0  0  0  0  0  0  0  0
  -18.3110  -13.0100   31.5710 C   0  0  0  0  0  0  0  0  0  0  0  0
  -18.7940  -12.3320   30.3230 Cl  0  0  0  0  0  0  0  0  0  0  0  0
  -19.2010  -13.9800   32.2900 C   0  0  0  0  0  0  0  0  0  0  0  0
  -18.7170  -14.6580   33.5380 C   0  0  0  0  0  0  0  0  0  0  0  0
  -15.5100  -13.1940   33.7110 H   0  0  0  0  0  0  0  0  0  0  0  0
  -16.3260  -12.0500   31.6050 H   0  0  0  0  0  0  0  0  0  0  0  0
  -20.1450  -14.1810   31.9260 H   0  0  0  0  0  0  0  0  0  0  0  0
  -19.3300  -15.3260   34.0320 H   0  0  0  0  0  0  0  0  0  0  0  0
  -13.4390  -16.1360   37.0020 C   0  0  0  0  0  0  0  0  0  0  0  0
  -12.9580  -16.8520   38.2290 C   0  0  0  0  0  0  0  0  0  0  0  0
  -11.4890  -17.0590   38.4490 C   0  0  0  0  0  0  0  0  0  0  0  0
  -10.5010  -16.5490   37.4420 C   0  0  0  0  0  0  0  0  0  0  0  0
  -10.9820  -15.8330   36.2150 C   0  0  0  0  0  0  0  0  0  0  0  0
  -12.4510  -15.6260   35.9950 C   0  0  0  0  0  0  0  0  0  0  0  0
  -13.6380  -17.2030   38.9220 H   0  0  0  0  0  0  0  0  0  0  0  0
  -11.1580  -17.5520   39.2930 H   0  0  0  0  0  0  0  0  0  0  0  0
  -10.3010  -15.4820   35.5220 H   0  0  0  0  0  0  0  0  0  0  0  0
  -12.7820  -15.1330   35.1510 H   0  0  0  0  0  0  0  0  0  0  0  0
   -9.0310  -16.7560   37.6620 S   0  0  1  0  0  0  0  0  0  0  0  0
   -8.7720  -16.4540   36.2160 O   0  0  0  0  0  0  0  0  0  0  0  0
   -9.2910  -17.0580   39.1080 O   0  0  0  0  0  0  0  0  0  0  0  0
   -7.5620  -16.9630   37.8820 N   0  0  0  0  0  0  0  0  0  0  0  0
   -6.9100  -16.8550   37.1050 H   0  0  0  0  0  0  0  0  0  0  0  0
   -7.2150  -17.2110   38.8090 H   0  0  0  0  0  0  0  0  0  0  0  0
  -18.3490  -16.6650   38.6170 C   0  0  0  0  0  0  0  0  0  0  0  0
  -18.4000  -18.1140   38.9980 N   0  0  0  0  0  0  0  0  0  0  0  0
  -19.2850  -15.6860   39.2620 O   0  0  0  0  0  0  0  0  0  0  0  0
  -17.7860  -18.7560   38.5750 H   0  0  0  0  0  0  0  0  0  0  0  0
  -19.0470  -18.4240   39.6730 H   0  0  0  0  0  0  0  0  0  0  0  0
  -15.4110  -17.0780   39.0570 O   0  0  0  0  0  0  0  0  0  0  0  0
  -15.4680  -16.3590   40.3720 C   0  0  0  0  0  0  0  0  0  0  0  0
  -15.8540  -15.3620   40.4200 H   0  0  0  0  0  0  0  0  0  0  0  0
  -15.1240  -16.8420   41.2620 H   0  0  0  0  0  0  0  0  0  0  0  0
  -15.5100  -15.8450   41.3100 H   0  0  0  0  0  0  0  0  0  0  0  0
  1 41  1  0
  2  1  1  0
  2 36  1  0
  3  2  2  0
  4  5  2  0
  4  3  1  0
  5  6  1  0
  6 20  1  0
  6  1  2  0
  7  3  1  0
  8  5  1  0
  9  4  1  0
 10 16  1  0
 10  9  2  0
 11 10  1  0
 12 11  2  0
 12 14  1  0
 13 12  1  0
 14 15  2  0
 15 19  1  0
 15  9  1  0
 17 11  1  0
 18 14  1  0
 20 21  1  0
 21 22  2  0
 21 26  1  0
 22 27  1  0
 23 30  1  0
 23 22  1  0
 24 23  2  0
 25 24  1  0
 25 20  2  0
 28 24  1  0
 29 25  1  0
 30 33  1  0
 30 32  2  0
 31 30  2  0
 33 35  1  0
 34 33  1  0
 36 37  1  0
 36 38  2  0
 37 40  1  0
 39 37  1  0
 41 42  1  0
 42 43  1  0
 42 44  1  0
 42 45  1  0
M  END
>  <minimizedAffinity>  (253) 
-9.05540371

$$$$

     RDKit          3D

 48 50  0  0  1  0  0  0  0  0999 V2000
  -11.7990  -15.1220   35.4190 C   0  0  0  0  0  0  0  0  0  0  0  0
  -12.9250  -15.1390   36.4100 C   0  0  0  0  0  0  0  0  0  0  0  0
  -14.3290  -14.8690   35.9550 C   0  0  0  0  0  0  0  0  0  0  0  0
  -14.6060  -14.5810   34.5090 C   0  0  0  0  0  0  0  0  0  0  0  0
  -13.4800  -14.5640   33.5180 C   0  0  0  0  0  0  0  0  0  0  0  0
  -12.0760  -14.8350   33.9730 C   0  0  0  0  0  0  0  0  0  0  0  0
  -10.9500  -14.8180   32.9830 Cl  0  0  0  0  0  0  0  0  0  0  0  0
  -12.7340  -15.3370   37.4050 H   0  0  0  0  0  0  0  0  0  0  0  0
  -15.1040  -14.8800   36.6370 H   0  0  0  0  0  0  0  0  0  0  0  0
  -13.6710  -14.3660   32.5240 H   0  0  0  0  0  0  0  0  0  0  0  0
  -16.0090  -14.3100   34.0540 N   0  0  0  0  0  0  0  0  0  0  0  0
  -17.1680  -14.7120   34.9170 C   0  0  0  0  0  3  0  0  0  0  0  0
  -16.9240  -15.3850   36.2360 N   0  0  0  0  0  0  0  0  0  0  0  0
  -18.0830  -15.7870   37.0990 C   0  0  0  0  0  0  0  0  0  0  0  0
  -19.4860  -15.5160   36.6440 N   0  0  0  0  0  2  0  0  0  0  0  0
  -19.7310  -14.8440   35.3250 C   0  0  0  0  0  0  0  0  0  0  0  0
  -18.5720  -14.4420   34.4620 C   0  0  0  0  0  0  0  0  0  0  0  0
  -16.1700  -13.8690   33.1890 H   0  0  0  0  0  0  0  0  0  0  0  0
  -17.9150  -16.2500   38.0060 H   0  0  0  0  0  0  0  0  0  0  0  0
  -20.6960  -14.6570   35.0120 H   0  0  0  0  0  0  0  0  0  0  0  0
  -18.8160  -13.7690   33.1440 C   0  0  0  0  0  0  0  0  0  0  0  0
  -19.0610  -13.0970   31.8260 C   0  0  0  0  0  0  0  0  0  0  0  0
  -19.3050  -12.4240   30.5070 C   0  0  0  0  0  0  0  0  0  0  0  0
  -19.4400  -13.2460   29.2600 C   0  0  0  0  0  0  0  0  0  0  0  0
  -19.6850  -12.5730   27.9410 C   0  0  0  0  0  0  0  0  0  0  0  0
  -19.7940  -11.0790   27.8710 C   0  0  0  0  0  0  0  0  0  0  0  0
  -19.6590  -10.2570   29.1180 C   0  0  0  0  0  0  0  0  0  0  0  0
  -19.4140  -10.9300   30.4370 C   0  0  0  0  0  0  0  0  0  0  0  0
  -19.3650  -14.2740   29.3080 H   0  0  0  0  0  0  0  0  0  0  0  0
  -19.7780  -13.1390   27.0830 H   0  0  0  0  0  0  0  0  0  0  0  0
  -19.9620  -10.6160   26.9640 H   0  0  0  0  0  0  0  0  0  0  0  0
  -19.7340   -9.2300   29.0690 H   0  0  0  0  0  0  0  0  0  0  0  0
  -19.3210  -10.3650   31.2950 H   0  0  0  0  0  0  0  0  0  0  0  0
  -10.3960  -15.3930   35.8740 O   0  0  0  0  0  1  0  0  0  0  0  0
   -9.9000  -16.8050   35.9780 C   0  0  0  0  0  3  0  0  0  0  0  0
  -10.2440  -17.5450   35.2850 H   0  0  0  0  0  0  0  0  0  0  0  0
  -10.5970  -16.5370   35.2110 H   0  0  0  0  0  0  0  0  0  0  0  0
   -7.5490  -20.4380   38.8550 F   0  0  0  0  0  0  0  0  0  0  0  0
   -7.7470  -18.9960   38.4910 C   0  0  0  0  0  0  0  0  0  0  0  0
   -6.9680  -17.9290   39.2010 C   0  0  0  0  0  0  0  0  0  0  0  0
   -7.1660  -16.4880   38.8370 C   0  0  0  0  0  0  0  0  0  0  0  0
   -8.1430  -16.1130   37.7620 C   0  0  0  0  0  0  0  0  0  0  0  0
   -8.9230  -17.1800   37.0520 C   0  0  0  0  0  0  0  0  0  0  0  0
   -8.7250  -18.6210   37.4160 C   0  0  0  0  0  0  0  0  0  0  0  0
   -6.2950  -18.1870   39.9400 H   0  0  0  0  0  0  0  0  0  0  0  0
   -6.6290  -15.7540   39.3250 H   0  0  0  0  0  0  0  0  0  0  0  0
   -8.2790  -15.1210   37.5120 H   0  0  0  0  0  0  0  0  0  0  0  0
   -9.2610  -19.3550   36.9280 H   0  0  0  0  0  0  0  0  0  0  0  0
  1 34  1  0
  1  2  1  0
  2  8  1  0
  3  2  2  0
  3  9  1  0
  4  3  1  0
  5  6  1  0
  5  4  2  0
  6  1  2  0
  7  6  1  0
 10  5  1  0
 11  4  1  0
 12 11  1  0
 12 13  1  0
 13 14  2  0
 14 19  1  0
 15 14  1  0
 16 15  1  0
 17 12  1  0
 17 16  2  0
 18 11  1  0
 20 16  1  0
 21 17  1  0
 22 21  3  0
 23 22  1  0
 24 29  1  0
 24 23  2  0
 25 24  1  0
 26 25  2  0
 26 27  1  0
 27 28  2  0
 28 23  1  0
 28 33  1  0
 30 25  1  0
 31 26  1  0
 32 27  1  0
 35 43  1  0
 36 35  1  0
 37 35  1  0
 39 38  1  0
 39 40  1  0
 40 45  1  0
 41 40  2  0
 41 46  1  0
 42 41  1  0
 43 44  1  0
 43 42  2  0
 44 39  2  0
 47 42  1  0
 48 44  1  0
M  END
>  <minimizedAffinity>  (254) 
-9.7990284

$$$$

     RDKit          3D

 51 55  0  0  1  0  0  0  0  0999 V2000
  -14.4940  -13.5900   33.9560 C   0  0  0  0  0  0  0  0  0  0  0  0
  -13.1590  -13.6800   33.2780 C   0  0  0  0  0  0  0  0  0  0  0  0
  -12.0650  -14.5100   33.8830 C   0  0  0  0  0  0  0  0  0  0  0  0
  -12.3060  -15.2490   35.1660 C   0  0  0  0  0  0  0  0  0  0  0  0
  -13.6420  -15.1590   35.8440 C   0  0  0  0  0  0  0  0  0  0  0  0
  -13.5860  -15.9930   37.0900 C   0  0  0  0  0  0  0  0  0  0  0  0
  -12.2170  -16.5980   37.1810 N   0  0  0  0  0  0  0  0  0  0  0  0
  -11.4260  -16.1380   35.9930 N   0  0  0  0  0  0  0  0  0  0  0  0
  -14.7350  -14.3290   35.2390 C   0  0  0  0  0  0  0  0  0  0  0  0
  -12.9930  -13.1710   32.3960 H   0  0  0  0  0  0  0  0  0  0  0  0
  -11.1470  -14.5720   33.4170 H   0  0  0  0  0  0  0  0  0  0  0  0
  -14.3550  -16.1260   37.7650 H   0  0  0  0  0  0  0  0  0  0  0  0
  -15.6540  -14.2680   35.7050 H   0  0  0  0  0  0  0  0  0  0  0  0
  -10.0040  -16.5040   35.6850 C   0  0  0  0  0  0  0  0  0  0  0  0
   -9.6380  -16.4290   34.6820 H   0  0  0  0  0  0  0  0  0  0  0  0
   -8.9890  -16.7640   35.4650 H   0  0  0  0  0  0  0  0  0  0  0  0
   -9.0960  -16.9740   36.7830 C   0  0  0  0  0  0  0  0  0  0  0  0
   -8.3280  -15.9770   37.5990 C   0  0  0  0  0  0  0  0  0  0  0  0
   -7.4200  -16.4470   38.6960 C   0  0  0  0  0  0  0  0  0  0  0  0
   -7.2800  -17.9140   38.9780 C   0  0  0  0  0  0  0  0  0  0  0  0
   -8.0470  -18.9110   38.1610 C   0  0  0  0  0  0  0  0  0  0  0  0
   -8.9560  -18.4410   37.0630 C   0  0  0  0  0  0  0  0  0  0  0  0
   -8.4240  -14.9680   37.4060 H   0  0  0  0  0  0  0  0  0  0  0  0
   -6.8920  -15.7610   39.2580 H   0  0  0  0  0  0  0  0  0  0  0  0
   -6.6560  -18.2370   39.7320 H   0  0  0  0  0  0  0  0  0  0  0  0
   -7.9510  -19.9200   38.3540 H   0  0  0  0  0  0  0  0  0  0  0  0
   -9.4840  -19.1260   36.5010 H   0  0  0  0  0  0  0  0  0  0  0  0
  -15.5880  -12.7610   33.3520 N   0  0  0  0  0  0  0  0  0  0  0  0
  -15.4380  -11.8050   33.1720 H   0  0  0  0  0  0  0  0  0  0  0  0
  -17.6150  -11.8130   29.4470 C   0  0  0  0  0  0  0  0  0  0  0  0
  -16.9390  -12.1290   30.7490 C   0  0  0  0  0  0  0  0  0  0  0  0
  -17.5850  -13.0720   31.7200 C   0  0  0  0  0  0  0  0  0  0  0  0
  -16.9090  -13.3880   33.0210 C   0  0  0  0  0  3  0  0  0  0  0  0
  -17.5550  -14.3320   33.9920 N   0  0  0  0  0  0  0  0  0  0  0  0
  -18.8770  -14.9600   33.6610 C   0  0  0  0  0  0  0  0  0  0  0  0
  -19.5530  -14.6440   32.3600 N   0  0  0  0  0  2  0  0  0  0  0  0
  -18.9070  -13.7000   31.3890 C   0  0  0  0  0  0  0  0  0  0  0  0
  -19.5820  -13.3840   30.0880 C   0  0  0  0  0  0  0  0  0  0  0  0
  -18.9360  -12.4400   29.1170 N   0  0  0  0  0  0  0  0  0  0  0  0
  -16.0290  -11.6970   30.9770 H   0  0  0  0  0  0  0  0  0  0  0  0
  -19.3210  -15.6090   34.3290 H   0  0  0  0  0  0  0  0  0  0  0  0
  -20.4920  -13.8160   29.8600 H   0  0  0  0  0  0  0  0  0  0  0  0
  -16.9690  -10.8690   28.4770 N   0  0  0  0  0  0  0  0  0  0  0  0
  -16.2030   -9.6820   28.9810 C   0  0  0  0  0  0  0  0  0  0  0  0
  -16.1170   -9.5080   30.0340 H   0  0  0  0  0  0  0  0  0  0  0  0
  -15.7420   -9.0090   28.2890 H   0  0  0  0  0  0  0  0  0  0  0  0
  -15.6560   -8.8350   29.3410 H   0  0  0  0  0  0  0  0  0  0  0  0
  -17.0880  -11.1120   27.0020 C   0  0  0  0  0  0  0  0  0  0  0  0
  -16.6280  -10.4390   26.3090 H   0  0  0  0  0  0  0  0  0  0  0  0
  -17.6350  -11.9590   26.6410 H   0  0  0  0  0  0  0  0  0  0  0  0
  -17.1740  -11.2860   25.9490 H   0  0  0  0  0  0  0  0  0  0  0  0
  1  9  1  0
  2  3  1  0
  2  1  2  0
  3  4  2  0
  4  5  1  0
  4  8  1  0
  5  6  1  0
  6  7  2  0
  6 12  1  0
  8  7  1  0
  9 13  1  0
  9  5  2  0
 10  2  1  0
 11  3  1  0
 14  8  1  0
 14 17  1  0
 15 14  1  0
 16 14  1  0
 17 22  2  0
 17 18  1  0
 18 19  2  0
 19 20  1  0
 19 24  1  0
 20 25  1  0
 21 26  1  0
 21 20  2  0
 22 21  1  0
 23 18  1  0
 27 22  1  0
 28  1  1  0
 29 28  1  0
 30 31  1  0
 31 40  1  0
 31 32  2  0
 32 33  1  0
 33 28  1  0
 33 34  1  0
 35 34  2  0
 35 41  1  0
 36 35  1  0
 37 32  1  0
 37 36  1  0
 38 37  2  0
 39 30  2  0
 39 38  1  0
 42 38  1  0
 43 44  1  0
 43 30  1  0
 44 47  1  0
 44 45  1  0
 46 44  1  0
 48 43  1  0
 49 48  1  0
 50 48  1  0
 51 48  1  0
M  END
>  <minimizedAffinity>  (255) 
-9.92540836

$$$$

     RDKit          3D

 47 51  0  0  0  0  0  0  0  0999 V2000
  -18.7570  -16.1260   37.9080 N   0  0  0  0  0  0  0  0  0  0  0  0
  -18.2550  -15.5690   36.6090 C   0  0  0  0  0  0  0  0  0  0  0  0
  -19.2280  -15.1490   35.5480 N   0  0  0  0  0  0  0  0  0  0  0  0
  -18.7270  -14.5920   34.2480 C   0  0  0  0  0  0  0  0  0  0  0  0
  -17.2520  -14.4560   34.0100 C   0  0  0  0  0  0  0  0  0  0  0  0
  -16.2790  -14.8770   35.0710 C   0  0  0  0  0  0  0  0  0  0  0  0
  -16.7810  -15.4330   36.3700 N   0  0  0  0  0  0  0  0  0  0  0  0
  -19.7250  -16.2150   38.0640 H   0  0  0  0  0  0  0  0  0  0  0  0
  -19.3960  -14.3030   33.5180 H   0  0  0  0  0  0  0  0  0  0  0  0
  -16.9070  -14.0730   33.1160 H   0  0  0  0  0  0  0  0  0  0  0  0
  -14.8050  -14.7410   34.8330 C   0  0  0  0  0  0  0  0  0  0  0  0
  -14.1570  -13.9330   33.7480 C   0  0  0  0  0  0  0  0  0  0  0  0
  -12.6700  -14.0810   33.8820 N   0  0  0  0  0  0  0  0  0  0  0  0
  -12.3990  -14.9820   35.0510 N   0  0  0  0  0  0  0  0  0  0  0  0
  -11.1210  -15.4840   35.6560 N   0  0  0  0  0  0  0  0  0  0  0  0
  -11.1620  -16.3930   36.8480 C   0  0  0  0  0  0  0  0  0  0  0  0
  -12.4810  -16.8000   37.4360 C   0  0  0  0  0  0  0  0  0  0  0  0
  -13.7590  -16.2990   36.8310 C   0  0  0  0  0  0  0  0  0  0  0  0
  -13.7180  -15.3900   35.6390 C   0  0  0  0  0  0  0  0  0  0  0  0
  -14.6480  -13.3720   33.0340 H   0  0  0  0  0  0  0  0  0  0  0  0
  -12.5090  -17.4260   38.2560 H   0  0  0  0  0  0  0  0  0  0  0  0
  -14.6660  -16.5790   37.2350 H   0  0  0  0  0  0  0  0  0  0  0  0
   -9.8850  -16.8950   37.4530 C   0  0  0  0  0  0  0  0  0  0  0  0
   -8.8880  -15.9240   38.0140 C   0  0  0  0  0  0  0  0  0  0  0  0
   -7.6110  -16.4250   38.6190 C   0  0  0  0  0  0  0  0  0  0  0  0
   -7.3290  -17.8980   38.6630 C   0  0  0  0  0  0  0  0  0  0  0  0
   -8.3260  -18.8690   38.1020 C   0  0  0  0  0  0  0  0  0  0  0  0
   -9.6030  -18.3670   37.4970 C   0  0  0  0  0  0  0  0  0  0  0  0
   -9.0820  -14.9100   37.9840 H   0  0  0  0  0  0  0  0  0  0  0  0
   -6.9250  -15.7570   39.0050 H   0  0  0  0  0  0  0  0  0  0  0  0
   -6.4500  -18.2430   39.0790 H   0  0  0  0  0  0  0  0  0  0  0  0
   -8.1320  -19.8820   38.1320 H   0  0  0  0  0  0  0  0  0  0  0  0
  -10.2890  -19.0350   37.1110 H   0  0  0  0  0  0  0  0  0  0  0  0
  -15.6220  -16.1060   40.3420 C   0  0  0  0  0  0  0  0  0  0  0  0
  -15.8380  -17.3870   41.0910 C   0  0  0  0  0  0  0  0  0  0  0  0
  -17.0260  -18.2480   40.7810 C   0  0  0  0  0  0  0  0  0  0  0  0
  -17.9990  -17.8270   39.7190 C   0  0  0  0  0  0  0  0  0  0  0  0
  -17.7840  -16.5460   38.9700 C   0  0  0  0  0  0  0  0  0  0  0  0
  -16.5950  -15.6850   39.2810 C   0  0  0  0  0  0  0  0  0  0  0  0
  -15.1680  -17.6760   41.8220 H   0  0  0  0  0  0  0  0  0  0  0  0
  -17.1740  -19.1300   41.2970 H   0  0  0  0  0  0  0  0  0  0  0  0
  -18.8170  -18.4190   39.5050 H   0  0  0  0  0  0  0  0  0  0  0  0
  -16.4480  -14.8040   38.7650 H   0  0  0  0  0  0  0  0  0  0  0  0
  -13.2460  -14.3840   40.9640 F   0  0  0  0  0  0  0  0  0  0  0  0
  -14.4340  -15.2450   40.6540 C   0  0  0  0  0  0  0  0  0  0  0  0
  -14.2950  -15.9190   41.9860 F   0  0  0  0  0  0  0  0  0  0  0  0
  -14.5730  -14.5710   39.3210 F   0  0  0  0  0  0  0  0  0  0  0  0
  1  8  1  0
  1 38  1  0
  2  1  1  0
  3  2  2  0
  4  3  1  0
  5  4  2  0
  5  6  1  0
  6  7  2  0
  7  2  1  0
  9  4  1  0
 10  5  1  0
 11  6  1  0
 11 19  2  0
 12 13  2  0
 12 11  1  0
 13 14  1  0
 14 19  1  0
 14 15  1  0
 15 16  2  0
 16 17  1  0
 16 23  1  0
 17 21  1  0
 18 22  1  0
 18 17  2  0
 19 18  1  0
 20 12  1  0
 23 28  2  0
 23 24  1  0
 24 25  2  0
 25 26  1  0
 25 30  1  0
 26 31  1  0
 27 32  1  0
 27 26  2  0
 28 27  1  0
 29 24  1  0
 33 28  1  0
 34 45  1  0
 34 35  1  0
 35 40  1  0
 36 35  2  0
 36 41  1  0
 37 36  1  0
 38 39  1  0
 38 37  2  0
 39 34  2  0
 42 37  1  0
 43 39  1  0
 45 44  1  0
 45 46  1  0
 47 45  1  0
M  END
>  <minimizedAffinity>  (256) 
-10.2634268

$$$$

     RDKit          3D

 42 45  0  0  0  0  0  0  0  0999 V2000
  -11.0540  -16.4830   36.9120 C   0  0  0  0  0  0  0  0  0  0  0  0
  -11.5220  -17.0220   38.2310 C   0  0  0  0  0  0  0  0  0  0  0  0
  -12.9520  -16.8480   38.6480 C   0  0  0  0  0  0  0  0  0  0  0  0
  -13.9140  -16.1340   37.7450 N   0  0  0  0  0  0  0  0  0  0  0  0
  -13.4460  -15.5950   36.4260 C   0  0  0  0  0  0  0  0  0  0  0  0
  -14.4090  -14.8810   35.5230 C   0  0  0  0  0  0  0  0  0  0  0  0
  -13.9400  -14.3420   34.2040 C   0  0  0  0  0  0  0  0  0  0  0  0
  -12.5100  -14.5170   33.7880 C   0  0  0  0  0  0  0  0  0  0  0  0
  -11.5480  -15.2300   34.6900 C   0  0  0  0  0  0  0  0  0  0  0  0
  -12.0160  -15.7690   36.0090 C   0  0  0  0  0  0  0  0  0  0  0  0
  -10.8600  -17.5130   38.8520 H   0  0  0  0  0  0  0  0  0  0  0  0
  -13.2740  -17.2180   39.5560 H   0  0  0  0  0  0  0  0  0  0  0  0
  -15.3930  -14.7610   35.8100 H   0  0  0  0  0  0  0  0  0  0  0  0
  -12.1880  -14.1460   32.8800 H   0  0  0  0  0  0  0  0  0  0  0  0
  -10.5630  -15.3510   34.4040 H   0  0  0  0  0  0  0  0  0  0  0  0
  -14.9030  -13.6290   33.3010 C   0  0  0  0  0  0  0  0  0  0  0  0
  -14.4080  -12.9710   32.0470 C   0  0  0  0  0  0  0  0  0  0  0  0
  -15.3700  -12.2580   31.1450 C   0  0  0  0  0  0  0  0  0  0  0  0
  -16.8270  -12.2010   31.4960 C   0  0  0  0  0  0  0  0  0  0  0  0
  -17.3220  -12.8590   32.7500 C   0  0  0  0  0  0  0  0  0  0  0  0
  -16.3600  -13.5720   33.6530 N   0  0  0  0  0  0  0  0  0  0  0  0
  -13.4050  -13.0100   31.8050 H   0  0  0  0  0  0  0  0  0  0  0  0
  -15.0290  -11.8050   30.2820 H   0  0  0  0  0  0  0  0  0  0  0  0
  -17.4890  -11.7100   30.8750 H   0  0  0  0  0  0  0  0  0  0  0  0
  -18.3250  -12.8200   32.9920 H   0  0  0  0  0  0  0  0  0  0  0  0
   -9.6230  -16.6580   36.4960 N   0  0  0  0  0  0  0  0  0  0  0  0
   -9.3390  -16.3980   35.5900 H   0  0  0  0  0  0  0  0  0  0  0  0
   -7.6270  -16.3300   38.1260 C   0  0  0  0  0  0  0  0  0  0  0  0
   -6.6300  -16.9010   39.0900 C   0  0  0  0  0  0  0  0  0  0  0  0
   -6.6310  -18.3710   39.3870 C   0  0  0  0  0  0  0  0  0  0  0  0
   -7.6300  -19.2700   38.7210 C   0  0  0  0  0  0  0  0  0  0  0  0
   -8.6270  -18.6990   37.7570 C   0  0  0  0  0  0  0  0  0  0  0  0
   -8.6260  -17.2290   37.4590 C   0  0  0  0  0  0  0  0  0  0  0  0
   -5.9420  -16.2820   39.5480 H   0  0  0  0  0  0  0  0  0  0  0  0
   -5.9450  -18.7640   40.0500 H   0  0  0  0  0  0  0  0  0  0  0  0
   -9.3150  -19.3180   37.2980 H   0  0  0  0  0  0  0  0  0  0  0  0
   -7.6260  -14.8600   37.8280 C   0  0  0  0  0  0  0  0  0  0  0  0
   -6.9130  -14.2180   38.3040 H   0  0  0  0  0  0  0  0  0  0  0  0
   -8.3370  -14.4520   37.1410 H   0  0  0  0  0  0  0  0  0  0  0  0
   -7.6250  -13.8110   37.6160 H   0  0  0  0  0  0  0  0  0  0  0  0
   -7.6310  -20.7400   39.0180 O   0  0  0  0  0  0  0  0  0  0  0  0
   -8.2560  -21.3020   38.6010 H   0  0  0  0  0  0  0  0  0  0  0  0
  1  2  1  0
  2  3  2  0
  2 11  1  0
  3 12  1  0
  4  3  1  0
  5  4  2  0
  6 13  1  0
  6  5  1  0
  7  6  2  0
  8  7  1  0
  8  9  2  0
  9 10  1  0
 10  5  1  0
 10  1  2  0
 14  8  1  0
 15  9  1  0
 16 21  1  0
 16  7  1  0
 17 16  2  0
 18 19  2  0
 18 17  1  0
 19 20  1  0
 20 25  1  0
 20 21  2  0
 22 17  1  0
 23 18  1  0
 24 19  1  0
 26  1  1  0
 26 33  1  0
 27 26  1  0
 28 29  1  0
 29 30  2  0
 29 34  1  0
 30 35  1  0
 31 41  1  0
 31 30  1  0
 32 31  2  0
 33 32  1  0
 33 28  2  0
 36 32  1  0
 37 28  1  0
 37 38  1  0
 39 37  1  0
 40 37  1  0
 42 41  1  0
M  END
>  <minimizedAffinity>  (257) 
-9.32536221

$$$$

     RDKit          3D

 34 36  0  0  0  0  0  0  0  0999 V2000
  -14.3780  -14.7720   35.8120 N   0  0  0  0  0  0  0  0  0  0  0  0
  -12.9140  -15.0960   35.7880 C   0  0  0  0  0  0  0  0  0  0  0  0
  -11.9330  -14.6710   34.7350 N   0  0  0  0  0  0  0  0  0  0  0  0
  -10.5870  -15.2150   35.1100 C   0  0  0  0  0  0  0  0  0  0  0  0
  -10.7340  -15.9750   36.3940 C   0  0  0  0  0  0  0  0  0  0  0  0
  -12.1720  -15.9020   36.8130 O   0  0  0  0  0  0  0  0  0  0  0  0
  -14.7740  -14.2330   35.0890 H   0  0  0  0  0  0  0  0  0  0  0  0
   -9.7120  -15.0880   34.5770 H   0  0  0  0  0  0  0  0  0  0  0  0
   -9.6360  -16.6850   37.1300 C   0  0  0  0  0  0  0  0  0  0  0  0
   -8.6110  -15.8960   37.8890 C   0  0  0  0  0  0  0  0  0  0  0  0
   -7.5130  -16.6060   38.6250 C   0  0  0  0  0  0  0  0  0  0  0  0
   -7.4410  -18.1040   38.6020 C   0  0  0  0  0  0  0  0  0  0  0  0
   -8.4670  -18.8930   37.8430 C   0  0  0  0  0  0  0  0  0  0  0  0
   -9.5650  -18.1830   37.1070 C   0  0  0  0  0  0  0  0  0  0  0  0
   -8.6610  -14.8650   37.9040 H   0  0  0  0  0  0  0  0  0  0  0  0
   -6.8070  -16.0630   39.1470 H   0  0  0  0  0  0  0  0  0  0  0  0
   -6.6850  -18.5920   39.1090 H   0  0  0  0  0  0  0  0  0  0  0  0
   -8.4180  -19.9230   37.8270 H   0  0  0  0  0  0  0  0  0  0  0  0
  -10.2700  -18.7260   36.5850 H   0  0  0  0  0  0  0  0  0  0  0  0
  -16.6130  -15.7950   36.6510 C   0  0  0  0  0  0  0  0  0  0  0  0
  -17.4730  -16.2910   37.7760 C   0  0  0  0  0  0  0  0  0  0  0  0
  -16.9580  -16.2610   39.1840 C   0  0  0  0  0  0  0  0  0  0  0  0
  -15.5830  -15.7330   39.4680 C   0  0  0  0  0  0  0  0  0  0  0  0
  -14.7230  -15.2370   38.3440 C   0  0  0  0  0  0  0  0  0  0  0  0
  -15.2380  -15.2680   36.9360 C   0  0  0  0  0  0  0  0  0  0  0  0
  -18.4200  -16.6540   37.5800 H   0  0  0  0  0  0  0  0  0  0  0  0
  -17.5500  -16.6020   39.9580 H   0  0  0  0  0  0  0  0  0  0  0  0
  -15.2290  -15.7120   40.4370 H   0  0  0  0  0  0  0  0  0  0  0  0
  -13.7770  -14.8740   38.5400 H   0  0  0  0  0  0  0  0  0  0  0  0
  -17.1280  -15.8260   35.2430 O   0  0  0  0  0  0  0  0  0  0  0  0
  -17.9730  -14.6990   34.7290 C   0  0  0  0  0  0  0  0  0  0  0  0
  -18.2090  -13.8720   35.3660 H   0  0  0  0  0  0  0  0  0  0  0  0
  -18.3410  -14.7210   33.7240 H   0  0  0  0  0  0  0  0  0  0  0  0
  -18.5770  -13.8940   34.3620 H   0  0  0  0  0  0  0  0  0  0  0  0
  1 25  1  0
  2  1  1  0
  2  6  1  0
  3  4  1  0
  3  2  2  0
  4  5  2  0
  5  6  1  0
  5  9  1  0
  7  1  1  0
  8  4  1  0
  9 10  1  0
 10 15  1  0
 10 11  2  0
 11 16  1  0
 12 11  1  0
 12 17  1  0
 13 12  2  0
 14  9  2  0
 14 13  1  0
 18 13  1  0
 19 14  1  0
 20 25  2  0
 20 21  1  0
 21 22  2  0
 22 23  1  0
 22 27  1  0
 23 28  1  0
 24 29  1  0
 24 23  2  0
 25 24  1  0
 26 21  1  0
 30 20  1  0
 31 30  1  0
 31 32  1  0
 33 31  1  0
 34 31  1  0
M  END
>  <minimizedAffinity>  (258) 
-7.30629492

$$$$

     RDKit          3D

 53 56  0  0  0  0  0  0  0  0999 V2000
  -17.5390  -15.3690   38.2410 C   0  0  0  0  0  0  0  0  0  0  0  0
  -16.7190  -15.1840   36.9990 C   0  0  0  0  0  0  0  0  0  0  0  0
  -17.3960  -14.9400   35.6820 C   0  0  0  0  0  0  0  0  0  0  0  0
  -18.8930  -14.8800   35.6080 C   0  0  0  0  0  0  0  0  0  0  0  0
  -19.7130  -15.0640   36.8510 C   0  0  0  0  0  0  0  0  0  0  0  0
  -19.0360  -15.3090   38.1670 C   0  0  0  0  0  0  0  0  0  0  0  0
  -15.6890  -15.2260   37.0490 H   0  0  0  0  0  0  0  0  0  0  0  0
  -16.8310  -14.8120   34.8280 H   0  0  0  0  0  0  0  0  0  0  0  0
  -20.7430  -15.0230   36.8000 H   0  0  0  0  0  0  0  0  0  0  0  0
  -19.6010  -15.4360   39.0210 H   0  0  0  0  0  0  0  0  0  0  0  0
  -19.5690  -14.6350   34.2920 N   0  0  0  0  0  0  0  0  0  0  0  0
  -19.1180  -13.5050   33.4160 C   0  0  0  0  0  0  0  0  0  0  0  0
  -17.9900  -12.6190   33.8550 O   0  0  0  0  0  0  0  0  0  0  0  0
  -19.7950  -13.2600   32.1000 N   0  0  0  0  0  0  0  0  0  0  0  0
  -20.3100  -15.2170   34.0040 H   0  0  0  0  0  0  0  0  0  0  0  0
  -20.5350  -13.8410   31.8110 H   0  0  0  0  0  0  0  0  0  0  0  0
  -19.3440  -12.1290   31.2230 C   0  0  0  0  0  0  0  0  0  0  0  0
  -19.5000  -10.7120   31.6870 C   0  0  0  0  0  0  0  0  0  0  0  0
  -19.0490   -9.5810   30.8110 C   0  0  0  0  0  0  0  0  0  0  0  0
  -18.4410   -9.8690   29.4700 C   0  0  0  0  0  0  0  0  0  0  0  0
  -18.2840  -11.2860   29.0050 C   0  0  0  0  0  0  0  0  0  0  0  0
  -18.7360  -12.4170   29.8820 C   0  0  0  0  0  0  0  0  0  0  0  0
  -19.9190  -10.5140   32.6100 H   0  0  0  0  0  0  0  0  0  0  0  0
  -19.1570   -8.6060   31.1300 H   0  0  0  0  0  0  0  0  0  0  0  0
  -18.1310   -9.0910   28.8670 H   0  0  0  0  0  0  0  0  0  0  0  0
  -18.6280  -13.3920   29.5630 H   0  0  0  0  0  0  0  0  0  0  0  0
  -17.6760  -11.5740   27.6650 C   0  0  0  0  0  0  0  0  0  0  0  0
  -16.8310  -10.5360   26.9870 O   0  0  0  0  0  0  0  0  0  0  0  0
  -17.9140  -12.8980   27.0020 O   0  0  0  0  0  0  0  0  0  0  0  0
  -18.4430  -13.5460   27.4250 H   0  0  0  0  0  0  0  0  0  0  0  0
  -16.8630  -15.6140   39.5570 O   0  0  0  0  0  0  0  0  0  0  0  0
   -8.3570  -17.9250   38.2810 C   0  0  0  0  0  0  0  0  0  0  0  0
   -8.2770  -17.1780   39.5790 O   0  0  0  0  0  0  0  0  0  0  0  0
   -9.6780  -18.0880   37.5890 N   0  0  0  0  0  0  0  0  0  0  0  0
  -10.9190  -17.5040   38.1960 C   0  0  0  0  0  0  0  0  0  0  0  0
  -12.3030  -17.5860   37.6220 N   0  0  0  0  0  0  0  0  0  0  0  0
  -13.2330  -16.8680   38.5550 C   0  0  0  0  0  0  0  0  0  0  0  0
  -14.7130  -16.6250   38.5060 C   0  0  0  0  0  0  0  0  0  0  0  0
  -15.3830  -15.8570   39.6060 C   0  0  0  0  0  0  0  0  0  0  0  0
  -14.5750  -15.3310   40.7550 C   0  0  0  0  0  0  0  0  0  0  0  0
  -13.0950  -15.5740   40.8040 C   0  0  0  0  0  0  0  0  0  0  0  0
  -12.4250  -16.3430   39.7040 C   0  0  0  0  0  0  0  0  0  0  0  0
  -10.9940  -16.7360   39.4820 N   0  0  0  0  0  0  0  0  0  0  0  0
   -9.7300  -18.5790   36.7360 H   0  0  0  0  0  0  0  0  0  0  0  0
  -15.2690  -16.9870   37.7150 H   0  0  0  0  0  0  0  0  0  0  0  0
  -15.0360  -14.8030   41.5120 H   0  0  0  0  0  0  0  0  0  0  0  0
  -12.5390  -15.2130   41.5940 H   0  0  0  0  0  0  0  0  0  0  0  0
  -10.2370  -16.5260   40.0760 H   0  0  0  0  0  0  0  0  0  0  0  0
   -7.1150  -18.5090   37.6740 O   0  0  0  0  0  0  0  0  0  0  0  0
   -6.3290  -19.5430   38.4240 C   0  0  0  0  0  0  0  0  0  0  0  0
   -6.6540  -19.8650   39.3910 H   0  0  0  0  0  0  0  0  0  0  0  0
   -5.4440  -19.9600   37.9910 H   0  0  0  0  0  0  0  0  0  0  0  0
   -5.7680  -20.2810   38.9590 H   0  0  0  0  0  0  0  0  0  0  0  0
  1 31  1  0
  2  7  1  0
  2  1  2  0
  3  2  1  0
  4  3  2  0
  4  5  1  0
  5  6  2  0
  6  1  1  0
  6 10  1  0
  8  3  1  0
  9  5  1  0
 11  4  1  0
 12 13  2  0
 12 11  1  0
 14 12  1  0
 15 11  1  0
 16 14  1  0
 17 18  1  0
 17 14  1  0
 18 23  1  0
 19 24  1  0
 19 18  2  0
 20 19  1  0
 21 20  2  0
 21 22  1  0
 22 17  2  0
 25 20  1  0
 26 22  1  0
 27 21  1  0
 28 27  2  0
 29 30  1  0
 29 27  1  0
 31 39  1  0
 32 33  2  0
 34 35  1  0
 34 32  1  0
 35 43  1  0
 36 35  2  0
 36 37  1  0
 37 42  1  0
 38 37  2  0
 38 39  1  0
 39 40  2  0
 40 41  1  0
 40 46  1  0
 41 47  1  0
 42 41  2  0
 43 42  1  0
 43 48  1  0
 44 34  1  0
 45 38  1  0
 49 32  1  0
 49 50  1  0
 50 53  1  0
 50 51  1  0
 52 50  1  0
M  END
>  <minimizedAffinity>  (259) 
-6.93061256

$$$$

     RDKit          3D

 37 39  0  0  0  0  0  0  0  0999 V2000
  -18.2910  -11.9110   31.8520 C   0  0  0  0  0  0  0  0  0  0  0  0
  -17.4060  -11.0420   31.0090 C   0  0  0  0  0  0  0  0  0  0  0  0
  -15.9140  -11.1600   31.1190 C   0  0  0  0  0  0  0  0  0  0  0  0
  -15.3090  -12.1480   32.0720 C   0  0  0  0  0  0  0  0  0  0  0  0
  -16.1940  -13.0160   32.9150 C   0  0  0  0  0  0  0  0  0  0  0  0
  -17.6850  -12.8980   32.8050 C   0  0  0  0  0  0  0  0  0  0  0  0
  -18.3000  -13.8810   33.7580 N   0  0  0  0  0  0  0  0  0  0  0  0
  -17.1880  -14.6060   34.4560 C   0  0  0  0  0  0  0  0  0  0  0  0
  -17.3500  -15.6780   35.4930 O   0  0  0  0  0  0  0  0  0  0  0  0
  -15.8870  -14.0720   33.9360 C   0  0  0  0  0  0  0  0  0  0  0  0
  -14.5190  -14.5160   34.3600 N   0  0  0  0  0  0  0  0  0  0  0  0
  -17.8220  -10.3630   30.3530 H   0  0  0  0  0  0  0  0  0  0  0  0
  -15.3050  -10.5620   30.5380 H   0  0  0  0  0  0  0  0  0  0  0  0
  -14.2830  -12.2290   32.1480 H   0  0  0  0  0  0  0  0  0  0  0  0
  -19.2640  -14.0240   33.8990 H   0  0  0  0  0  0  0  0  0  0  0  0
  -19.7820  -11.7920   31.7420 C   0  0  0  0  0  0  0  0  0  0  0  0
  -20.2150  -11.0880   31.0620 H   0  0  0  0  0  0  0  0  0  0  0  0
  -20.4140  -12.4120   32.3440 H   0  0  0  0  0  0  0  0  0  0  0  0
  -20.8460  -11.7080   31.6640 H   0  0  0  0  0  0  0  0  0  0  0  0
  -14.3660  -15.5880   35.3980 N   0  0  0  0  0  0  0  0  0  0  0  0
  -15.1540  -16.0960   35.7000 H   0  0  0  0  0  0  0  0  0  0  0  0
  -13.0140  -15.8880   35.9750 C   0  0  0  0  0  0  0  0  0  0  0  0
  -11.7820  -15.3350   35.3230 C   0  0  0  0  0  0  0  0  0  0  0  0
  -10.4300  -15.6350   35.9000 C   0  0  0  0  0  0  0  0  0  0  0  0
  -10.3110  -16.4870   37.1290 C   0  0  0  0  0  0  0  0  0  0  0  0
  -11.5440  -17.0390   37.7810 C   0  0  0  0  0  0  0  0  0  0  0  0
  -12.8960  -16.7400   37.2040 C   0  0  0  0  0  0  0  0  0  0  0  0
  -11.8630  -14.7490   34.4770 H   0  0  0  0  0  0  0  0  0  0  0  0
   -9.5810  -15.2550   35.4530 H   0  0  0  0  0  0  0  0  0  0  0  0
  -11.4630  -17.6250   38.6270 H   0  0  0  0  0  0  0  0  0  0  0  0
  -13.7440  -17.1200   37.6520 H   0  0  0  0  0  0  0  0  0  0  0  0
   -8.9600  -16.7860   37.7060 S   0  0  1  0  0  0  0  0  0  0  0  0
   -8.5710  -17.4840   36.4370 O   0  0  0  0  0  0  0  0  0  0  0  0
   -9.3470  -16.0880   38.9770 O   0  0  0  0  0  0  0  0  0  0  0  0
   -7.6080  -17.0850   38.2840 N   0  0  0  0  0  0  0  0  0  0  0  0
   -6.9200  -17.5980   37.7330 H   0  0  0  0  0  0  0  0  0  0  0  0
   -7.3770  -16.7750   39.2290 H   0  0  0  0  0  0  0  0  0  0  0  0
  1  6  1  0
  2  3  1  0
  2  1  2  0
  3  4  2  0
  4 14  1  0
  4  5  1  0
  5 10  1  0
  6  5  2  0
  6  7  1  0
  7 15  1  0
  7  8  1  0
  8  9  2  0
 10 11  2  0
 10  8  1  0
 11 20  1  0
 12  2  1  0
 13  3  1  0
 16  1  1  0
 16 18  1  0
 17 16  1  0
 19 16  1  0
 20 21  1  0
 20 22  1  0
 22 27  1  0
 23 24  1  0
 23 22  2  0
 24 25  2  0
 25 32  1  0
 25 26  1  0
 26 30  1  0
 27 31  1  0
 27 26  2  0
 28 23  1  0
 29 24  1  0
 32 35  1  0
 32 34  2  0
 33 32  2  0
 35 37  1  0
 36 35  1  0
M  END
>  <minimizedAffinity>  (260) 
-8.11928654

$$$$

     RDKit          3D

 33 34  0  0  0  0  0  0  0  0999 V2000
  -10.5230  -16.1420   36.0080 C   0  0  0  0  0  0  0  0  0  0  0  0
  -10.2840  -15.5990   34.6310 N   0  0  0  0  0  2  0  0  0  0  0  0
  -11.5970  -15.1150   34.0890 C   0  0  0  0  0  0  0  0  0  0  0  0
  -12.6460  -15.3580   35.1330 N   0  0  0  0  0  0  0  0  0  0  0  0
  -11.9830  -15.9920   36.3180 C   0  0  0  0  0  0  0  0  0  0  0  0
  -13.9590  -14.8730   34.5910 C   0  0  0  0  0  3  0  0  0  0  0  0
  -13.7200  -14.3300   33.2130 C   0  0  0  0  0  2  0  0  0  0  0  0
  -12.2600  -14.4800   32.9030 S   0  0  0  0  0  0  0  0  0  0  0  0
  -14.9000  -14.9080   35.0990 H   0  0  0  0  0  0  0  0  0  0  0  0
  -14.8080  -14.4860   34.0680 H   0  0  0  0  0  0  0  0  0  0  0  0
  -14.4610  -13.9110   32.5660 H   0  0  0  0  0  0  0  0  0  0  0  0
  -13.3890  -13.9850   32.2570 H   0  0  0  0  0  0  0  0  0  0  0  0
   -6.3670  -18.4950   39.6400 F   0  0  0  0  0  0  0  0  0  0  0  0
   -7.4060  -17.9070   38.7320 C   0  0  0  0  0  0  0  0  0  0  0  0
   -7.5120  -16.4190   38.5790 C   0  0  0  0  0  0  0  0  0  0  0  0
   -8.5520  -15.8300   37.6710 C   0  0  0  0  0  0  0  0  0  0  0  0
   -9.4840  -16.7310   36.9170 C   0  0  0  0  0  0  0  0  0  0  0  0
   -9.3780  -18.2190   37.0690 C   0  0  0  0  0  0  0  0  0  0  0  0
   -8.3390  -18.8070   37.9770 C   0  0  0  0  0  0  0  0  0  0  0  0
   -6.8700  -15.7990   39.0980 H   0  0  0  0  0  0  0  0  0  0  0  0
   -8.6240  -14.8070   37.5660 H   0  0  0  0  0  0  0  0  0  0  0  0
  -10.0200  -18.8390   36.5510 H   0  0  0  0  0  0  0  0  0  0  0  0
   -8.2660  -19.8310   38.0830 H   0  0  0  0  0  0  0  0  0  0  0  0
  -12.6610  -16.4060   37.5910 C   0  0  0  0  0  0  0  0  0  0  0  0
  -13.9160  -17.2250   37.5410 C   0  0  0  0  0  0  0  0  0  0  0  0
  -14.5940  -17.6380   38.8140 C   0  0  0  0  0  0  0  0  0  0  0  0
  -14.0160  -17.2320   40.1380 N   0  0  0  0  0  0  0  0  0  0  0  0
  -12.7600  -16.4130   40.1880 C   0  0  0  0  0  0  0  0  0  0  0  0
  -12.0820  -16.0000   38.9150 C   0  0  0  0  0  0  0  0  0  0  0  0
  -14.3140  -17.5040   36.6310 H   0  0  0  0  0  0  0  0  0  0  0  0
  -15.4570  -18.2010   38.7790 H   0  0  0  0  0  0  0  0  0  0  0  0
  -12.3620  -16.1340   41.0980 H   0  0  0  0  0  0  0  0  0  0  0  0
  -11.2180  -15.4360   38.9500 H   0  0  0  0  0  0  0  0  0  0  0  0
  1  5  2  0
  1 17  1  0
  2  1  1  0
  3  2  1  0
  3  4  1  0
  4  5  1  0
  5 24  1  0
  6  9  1  0
  6  4  1  0
  8  3  2  0
 10  6  1  0
 11  7  1  0
 12  7  1  0
 14 13  1  0
 15 14  1  0
 15 20  1  0
 16 15  2  0
 17 18  2  0
 17 16  1  0
 18 19  1  0
 19 23  1  0
 19 14  2  0
 21 16  1  0
 22 18  1  0
 24 29  1  0
 25 24  2  0
 25 26  1  0
 26 27  2  0
 27 28  1  0
 28 32  1  0
 29 33  1  0
 29 28  2  0
 30 25  1  0
 31 26  1  0
M  END
>  <minimizedAffinity>  (261) 
-8.6336956

$$$$

     RDKit          3D

 43 39  0  0  0  0  0  0  0  0999 V2000
  -12.9300  -16.4470   37.2490 N   0  0  0  0  0 15  0  0  0  0  0  0
  -11.6110  -15.9630   36.7230 C   0  0  0  0  0  2  0  0  0  0  0  0
  -11.8760  -15.1040   35.5230 N   0  0  0  0  0  2  0  0  0  0  0  0
  -13.3600  -15.0560   35.3060 C   0  0  0  0  0  0  0  0  0  0  0  0
  -14.2030  -14.3640   34.2760 C   0  0  0  0  0  0  0  0  0  0  0  0
  -15.6960  -14.5020   34.3110 N   0  0  0  0  0  0  0  0  0  0  0  0
  -16.3470  -15.3320   35.3780 C   0  0  0  0  0  0  0  0  0  0  0  0
  -15.5050  -16.0240   36.4090 C   0  0  0  0  0  0  0  0  0  0  0  0
  -14.0120  -15.8860   36.3730 C   0  0  0  0  0  3  0  0  0  0  0  0
  -13.7550  -13.7930   33.5420 H   0  0  0  0  0  0  0  0  0  0  0  0
  -17.3740  -15.4270   35.4020 H   0  0  0  0  0  0  0  0  0  0  0  0
  -16.1560  -16.8540   37.4750 C   0  0  0  0  0  0  0  0  0  0  0  0
  -15.8790  -18.3260   37.5530 O   0  0  0  0  0  0  0  0  0  0  0  0
  -17.0840  -16.2120   38.4630 N   0  0  0  0  0  0  0  0  0  0  0  0
  -17.3600  -14.7400   38.3850 C   0  0  0  0  0  0  0  0  0  0  0  0
  -18.2880  -14.0970   39.3730 C   0  0  0  0  0  2  0  0  0  0  0  0
  -18.9390  -14.9270   40.4400 N   0  0  0  0  0  2  0  0  0  0  0  0
  -18.6620  -16.3990   40.5180 C   0  0  0  0  0  3  0  0  0  0  0  0
  -17.7350  -17.0420   39.5300 C   0  0  0  0  0  2  0  0  0  0  0  0
  -16.8960  -14.1480   37.6240 H   0  0  0  0  0  0  0  0  0  0  0  0
  -17.5580  -13.6890   38.3300 H   0  0  0  0  0  0  0  0  0  0  0  0
  -18.4850  -13.0470   39.3180 H   0  0  0  0  0  0  0  0  0  0  0  0
  -18.9500  -13.6390   40.0790 H   0  0  0  0  0  0  0  0  0  0  0  0
  -19.5700  -14.4910   41.1120 H   0  0  0  0  0  0  0  0  0  0  0  0
  -19.1270  -16.9910   41.2790 H   0  0  0  0  0  0  0  0  0  0  0  0
  -18.4650  -17.4500   40.5740 H   0  0  0  0  0  0  0  0  0  0  0  0
  -17.5370  -18.0920   39.5850 H   0  0  0  0  0  0  0  0  0  0  0  0
  -17.0730  -17.5000   38.8250 H   0  0  0  0  0  0  0  0  0  0  0  0
  -10.2630  -16.2830   37.2980 C   0  0  0  0  0  0  0  0  0  0  0  0
   -9.8880  -16.2290   38.7490 N   0  0  0  0  0  0  0  0  0  0  0  0
   -8.4450  -16.6250   38.8700 O   0  0  0  0  0  0  0  0  0  0  0  0
   -7.9300  -16.9240   37.4930 N   0  0  0  0  0  0  0  0  0  0  0  0
   -9.0530  -16.7130   36.5210 C   0  0  0  0  0  0  0  0  0  0  0  0
   -8.9790  -16.8980   35.0350 N   0  0  0  0  0  0  0  0  0  0  0  0
   -9.7740  -16.7340   34.4780 H   0  0  0  0  0  0  0  0  0  0  0  0
   -8.1360  -17.1840   34.6150 H   0  0  0  0  0  0  0  0  0  0  0  0
  -13.1330  -17.3350   38.4400 C   0  0  0  0  0  3  0  0  0  0  0  0
  -13.0960  -18.3980   38.3280 H   0  0  0  0  0  0  0  0  0  0  0  0
  -12.9510  -17.7640   37.4770 H   0  0  0  0  0  0  0  0  0  0  0  0
  -13.3880  -16.7330   39.7900 C   0  0  0  0  0  0  0  0  0  0  0  0
  -13.4250  -15.6690   39.9030 H   0  0  0  0  0  0  0  0  0  0  0  0
  -13.5330  -17.3660   40.6400 H   0  0  0  0  0  0  0  0  0  0  0  0
  -13.5700  -16.3030   40.7530 H   0  0  0  0  0  0  0  0  0  0  0  0
  2 29  1  0
  3  2  1  0
  4  3  1  0
  4  9  1  0
  5  6  1  0
  5  4  2  0
  6  7  2  0
  7 11  1  0
  7  8  1  0
  8 12  1  0
  9  8  2  0
 10  5  1  0
 12 13  2  0
 12 14  1  0
 15 14  2  0
 16 23  1  0
 17 18  1  0
 17 24  1  0
 18 26  1  0
 18 25  1  0
 19 27  1  0
 20 15  1  0
 21 15  1  0
 22 16  1  0
 28 19  1  0
 29 30  2  0
 30 31  1  0
 32 31  1  0
 33 29  1  0
 33 32  2  0
 34 33  1  0
 35 34  1  0
 36 34  1  0
 37 40  1  0
 38 37  1  0
 39 37  1  0
 40 41  1  0
 40 42  1  0
 40 43  1  0
M  END
>  <minimizedAffinity>  (262) 
-8.59276962

$$$$

     RDKit          3D

 37 34  0  0  0  0  0  0  0  0999 V2000
  -12.4290  -15.9590   37.7290 C   0  0  0  0  0  0  0  0  0  0  0  0
  -13.4140  -15.4180   36.7350 N   0  0  0  0  0  0  0  0  0  0  0  0
  -12.7340  -15.3530   35.3990 C   0  0  0  0  0  0  0  0  0  0  0  0
  -13.2120  -14.9020   34.0510 C   0  0  0  0  0  0  0  0  0  0  0  0
  -12.2870  -14.9520   32.8710 N   0  0  0  0  0  0  0  0  0  0  0  0
  -10.8820  -15.4510   33.0410 C   0  0  0  0  0  0  0  0  0  0  0  0
  -10.4040  -15.9020   34.3890 C   0  0  0  0  0  0  0  0  0  0  0  0
  -11.3300  -15.8520   35.5680 C   0  0  0  0  0  0  0  0  0  0  0  0
  -11.1410  -16.2270   37.0090 N   0  0  0  0  0  0  0  0  0  0  0  0
  -14.1780  -14.5590   33.9340 H   0  0  0  0  0  0  0  0  0  0  0  0
  -10.2450  -15.4850   32.2290 H   0  0  0  0  0  0  0  0  0  0  0  0
   -9.4380  -16.2450   34.5060 H   0  0  0  0  0  0  0  0  0  0  0  0
   -9.8860  -16.7730   37.6200 C   0  0  0  0  0  2  0  0  0  0  0  0
   -8.7640  -15.8480   37.9850 C   0  0  0  0  0  2  0  0  0  0  0  0
   -7.5090  -16.3940   38.5960 C   0  0  0  0  0  2  0  0  0  0  0  0
   -7.3750  -17.8670   38.8440 C   0  0  0  0  0  2  0  0  0  0  0  0
   -8.4970  -18.7940   38.4800 C   0  0  0  0  0  2  0  0  0  0  0  0
   -9.7530  -18.2470   37.8680 C   0  0  0  0  0  2  0  0  0  0  0  0
   -8.9900  -17.1640   38.0570 H   0  0  0  0  0  0  0  0  0  0  0  0
   -8.8590  -14.7960   37.8080 H   0  0  0  0  0  0  0  0  0  0  0  0
   -7.9630  -15.1870   38.2440 H   0  0  0  0  0  0  0  0  0  0  0  0
   -6.7070  -15.7340   38.8560 H   0  0  0  0  0  0  0  0  0  0  0  0
   -6.6130  -16.7850   39.0320 H   0  0  0  0  0  0  0  0  0  0  0  0
   -6.4790  -18.2580   39.2800 H   0  0  0  0  0  0  0  0  0  0  0  0
   -7.2790  -18.9190   39.0210 H   0  0  0  0  0  0  0  0  0  0  0  0
   -8.4020  -19.8460   38.6560 H   0  0  0  0  0  0  0  0  0  0  0  0
   -9.2980  -19.4550   38.2200 H   0  0  0  0  0  0  0  0  0  0  0  0
  -10.5530  -18.9070   37.6090 H   0  0  0  0  0  0  0  0  0  0  0  0
  -10.6490  -17.8570   37.4320 H   0  0  0  0  0  0  0  0  0  0  0  0
  -15.3310  -16.5760   39.0900 N   0  0  0  0  0  0  0  0  0  0  0  0
  -14.0220  -16.4740   39.8140 C   0  0  0  0  0  0  0  0  0  0  0  0
  -13.8160  -16.6370   41.2910 N   0  0  0  0  0  0  0  0  0  0  0  0
  -12.3550  -16.4550   41.5790 O   0  0  0  0  0  0  0  0  0  0  0  0
  -11.6570  -16.1790   40.2790 N   0  0  0  0  0  0  0  0  0  0  0  0
  -12.6880  -16.1900   39.1880 C   0  0  0  0  0  0  0  0  0  0  0  0
  -15.3650  -16.4520   38.1140 H   0  0  0  0  0  0  0  0  0  0  0  0
  -16.1570  -16.7660   39.5900 H   0  0  0  0  0  0  0  0  0  0  0  0
  1 35  1  0
  2  1  2  0
  3  8  1  0
  3  2  1  0
  4  3  2  0
  5  6  2  0
  5  4  1  0
  6  7  1  0
  7 12  1  0
  7  8  2  0
  8  9  1  0
  9 13  1  0
  9  1  1  0
 10  4  1  0
 11  6  1  0
 13 19  1  0
 14 21  1  0
 15 22  1  0
 15 23  1  0
 16 25  1  0
 16 24  1  0
 17 26  1  0
 20 14  1  0
 27 17  1  0
 28 18  1  0
 29 18  1  0
 30 37  1  0
 30 31  1  0
 31 32  2  0
 32 33  1  0
 34 33  1  0
 35 31  1  0
 35 34  2  0
 36 30  1  0
M  END
>  <minimizedAffinity>  (263) 
-8.37888718

$$$$

     RDKit          3D

 39 36  0  0  0  0  0  0  0  0999 V2000
  -13.9640  -15.9750   37.4890 N   0  0  0  0  0  0  0  0  0  0  0  0
  -13.5650  -16.6760   38.7530 C   0  0  0  0  0  0  0  0  0  0  0  0
  -12.1020  -16.9920   38.6650 N   0  0  0  0  0  2  0  0  0  0  0  0
  -11.5960  -16.4860   37.3460 C   0  0  0  0  0  0  0  0  0  0  0  0
  -10.2370  -16.5170   36.7130 C   0  0  0  0  0  3  0  0  0  0  0  0
  -10.0290  -15.9200   35.3530 N   0  0  0  0  0  0  0  0  0  0  0  0
  -11.1800  -15.2910   34.6260 C   0  0  0  0  0  0  0  0  0  0  0  0
  -12.5400  -15.2600   35.2590 C   0  0  0  0  0  0  0  0  0  0  0  0
  -12.7480  -15.8580   36.6190 C   0  0  0  0  0  0  0  0  0  0  0  0
  -11.0370  -14.8800   33.6910 H   0  0  0  0  0  0  0  0  0  0  0  0
  -13.3320  -14.8270   34.7590 H   0  0  0  0  0  0  0  0  0  0  0  0
   -9.0850  -17.1460   37.4400 N   0  0  0  0  0  1  0  0  0  0  0  0
   -8.6210  -18.5650   37.2970 C   0  0  0  0  0  3  0  0  0  0  0  0
   -7.4450  -18.7630   38.2060 C   0  0  0  0  0  2  0  0  0  0  0  0
   -7.1820  -17.4660   38.9120 C   0  0  0  0  0  2  0  0  0  0  0  0
   -8.1960  -16.4660   38.4390 C   0  0  0  0  0  2  0  0  0  0  0  0
   -9.0520  -19.3070   36.6580 H   0  0  0  0  0  0  0  0  0  0  0  0
   -8.1720  -19.5360   37.3080 H   0  0  0  0  0  0  0  0  0  0  0  0
   -6.8900  -19.6690   38.3300 H   0  0  0  0  0  0  0  0  0  0  0  0
   -6.6270  -18.7420   38.8970 H   0  0  0  0  0  0  0  0  0  0  0  0
   -6.4080  -17.2840   39.6280 H   0  0  0  0  0  0  0  0  0  0  0  0
   -7.1250  -16.4810   39.3290 H   0  0  0  0  0  0  0  0  0  0  0  0
   -8.2720  -15.4470   38.7580 H   0  0  0  0  0  0  0  0  0  0  0  0
   -8.9780  -15.8790   38.0050 H   0  0  0  0  0  0  0  0  0  0  0  0
  -14.4700  -17.0030   39.9040 C   0  0  0  0  0  0  0  0  0  0  0  0
  -15.2500  -18.2710   40.0790 N   0  0  0  0  0  0  0  0  0  0  0  0
  -16.0160  -18.1710   41.3640 O   0  0  0  0  0  0  0  0  0  0  0  0
  -15.7090  -16.8400   41.9840 N   0  0  0  0  0  0  0  0  0  0  0  0
  -14.7540  -16.1190   41.0810 C   0  0  0  0  0  0  0  0  0  0  0  0
  -14.1820  -14.7510   41.3150 N   0  0  0  0  0  0  0  0  0  0  0  0
  -13.5600  -14.3600   40.6620 H   0  0  0  0  0  0  0  0  0  0  0  0
  -14.4300  -14.2450   42.1240 H   0  0  0  0  0  0  0  0  0  0  0  0
  -15.3400  -15.4780   37.1520 C   0  0  0  0  0  3  0  0  0  0  0  0
  -15.6520  -14.5060   37.4770 H   0  0  0  0  0  0  0  0  0  0  0  0
  -14.6700  -14.8610   37.7160 H   0  0  0  0  0  0  0  0  0  0  0  0
  -16.2770  -16.3420   36.3620 C   0  0  0  0  0  0  0  0  0  0  0  0
  -15.9650  -17.3130   36.0380 H   0  0  0  0  0  0  0  0  0  0  0  0
  -17.2570  -15.9870   36.1220 H   0  0  0  0  0  0  0  0  0  0  0  0
  -16.9460  -16.9580   35.7980 H   0  0  0  0  0  0  0  0  0  0  0  0
  1  2  2  0
  2 25  1  0
  3  2  1  0
  4  3  1  0
  5  4  1  0
  6  5  2  0
  7  8  2  0
  7  6  1  0
  8  9  1  0
  9  4  2  0
  9  1  1  0
 10  7  1  0
 11  8  1  0
 13 18  1  0
 13 12  1  0
 14 19  1  0
 14 20  1  0
 15 22  1  0
 15 21  1  0
 16 23  1  0
 17 13  1  0
 24 16  1  0
 25 26  2  0
 25 29  1  0
 26 27  1  0
 27 28  1  0
 29 30  1  0
 29 28  2  0
 30 32  1  0
 31 30  1  0
 33 34  1  0
 33 35  1  0
 36 33  1  0
 37 36  1  0
 38 36  1  0
 39 36  1  0
M  END
>  <minimizedAffinity>  (264) 
-8.84709358

$$$$

     RDKit          3D

 70 68  0  0  0  0  0  0  0  0999 V2000
  -12.6340  -15.5770   36.1670 C   0  0  0  0  0  0  0  0  0  0  0  0
  -11.3610  -16.0100   35.5020 C   0  0  0  0  0  0  0  0  0  0  0  0
  -11.1110  -15.6640   34.0640 C   0  0  0  0  0  0  0  0  0  0  0  0
  -12.1330  -14.8850   33.2910 C   0  0  0  0  0  0  0  0  0  0  0  0
  -11.8820  -14.5390   31.8530 N   0  0  0  0  0  0  0  0  0  0  0  0
  -12.9050  -13.7600   31.0800 C   0  0  0  0  0  0  0  0  0  0  0  0
  -14.1780  -13.3270   31.7440 N   0  0  0  0  0  0  0  0  0  0  0  0
  -14.4290  -13.6730   33.1820 C   0  0  0  0  0  0  0  0  0  0  0  0
  -15.7020  -13.2400   33.8470 N   0  0  0  0  0  0  0  0  0  0  0  0
  -13.4060  -14.4520   33.9550 C   0  0  0  0  0  0  0  0  0  0  0  0
  -13.6570  -14.7980   35.3930 C   0  0  0  0  0  0  0  0  0  0  0  0
  -10.6580  -16.5460   36.0340 H   0  0  0  0  0  0  0  0  0  0  0  0
  -10.2350  -15.9620   33.6070 H   0  0  0  0  0  0  0  0  0  0  0  0
  -12.7320  -13.5220   30.0900 H   0  0  0  0  0  0  0  0  0  0  0  0
  -15.8670  -13.4670   34.7910 H   0  0  0  0  0  0  0  0  0  0  0  0
  -14.5330  -14.5000   35.8510 H   0  0  0  0  0  0  0  0  0  0  0  0
  -16.7240  -12.4610   33.0730 C   0  0  0  0  0  0  0  0  0  0  0  0
  -16.7530  -10.9640   33.1640 C   0  0  0  0  0  0  0  0  0  0  0  0
  -17.7750  -10.1860   32.3910 C   0  0  0  0  0  0  0  0  0  0  0  0
  -18.7690  -10.9040   31.5270 C   0  0  0  0  0  0  0  0  0  0  0  0
  -18.7400  -12.4010   31.4360 C   0  0  0  0  0  0  0  0  0  0  0  0
  -19.7340  -13.1190   30.5720 Cl  0  0  0  0  0  0  0  0  0  0  0  0
  -17.7180  -13.1790   32.2090 C   0  0  0  0  0  0  0  0  0  0  0  0
  -16.0690  -10.4700   33.7590 H   0  0  0  0  0  0  0  0  0  0  0  0
  -17.7950   -9.1550   32.4540 H   0  0  0  0  0  0  0  0  0  0  0  0
  -17.6980  -14.2100   32.1470 H   0  0  0  0  0  0  0  0  0  0  0  0
  -19.7910  -10.1250   30.7540 O   0  0  0  0  0  0  0  0  0  0  0  0
  -19.4560   -9.5900   29.3930 C   0  0  0  0  0  0  0  0  0  0  0  0
  -20.0060   -8.7650   28.9910 H   0  0  0  0  0  0  0  0  0  0  0  0
  -19.2160   -9.2090   28.4220 H   0  0  0  0  0  0  0  0  0  0  0  0
  -18.3480  -10.2130   28.5950 C   0  0  0  0  0  0  0  0  0  0  0  0
  -18.6090  -11.4470   27.7840 C   0  0  0  0  0  0  0  0  0  0  0  0
  -17.5020  -12.0690   26.9870 C   0  0  0  0  0  0  0  0  0  0  0  0
  -16.1330  -11.4570   27.0000 C   0  0  0  0  0  0  0  0  0  0  0  0
  -15.8710  -10.2220   27.8110 C   0  0  0  0  0  0  0  0  0  0  0  0
  -14.5020   -9.6100   27.8240 F   0  0  0  0  0  0  0  0  0  0  0  0
  -16.9790   -9.6000   28.6090 C   0  0  0  0  0  0  0  0  0  0  0  0
  -19.5520  -11.8690   27.7750 H   0  0  0  0  0  0  0  0  0  0  0  0
  -17.6820  -12.9190   26.4290 H   0  0  0  0  0  0  0  0  0  0  0  0
  -15.3700  -11.8850   26.4510 H   0  0  0  0  0  0  0  0  0  0  0  0
  -16.7990   -8.7510   29.1670 H   0  0  0  0  0  0  0  0  0  0  0  0
  -13.8580  -15.9890   39.8270 C   0  0  0  0  0  1  0  0  0  0  0  0
  -12.6840  -16.9220   39.8070 C   0  0  0  0  0  3  0  0  0  0  0  0
  -12.0820  -16.8810   38.4340 C   0  0  0  0  0  0  0  0  0  0  0  0
  -12.8850  -15.9230   37.6040 C   0  0  0  0  0  0  0  0  0  0  0  0
  -13.9820  -15.3710   38.4650 O   0  0  0  0  0  1  0  0  0  0  0  0
  -12.3490  -17.4910   40.6000 H   0  0  0  0  0  0  0  0  0  0  0  0
  -11.2610  -17.4180   38.1150 H   0  0  0  0  0  0  0  0  0  0  0  0
  -14.7510  -15.7200   41.0020 C   0  0  0  0  0  2  0  0  0  0  0  0
  -14.3390  -15.3350   41.9110 H   0  0  0  0  0  0  0  0  0  0  0  0
  -13.7020  -15.5270   41.0730 H   0  0  0  0  0  0  0  0  0  0  0  0
  -16.2240  -15.9910   40.9020 N   0  0  0  0  0 15  0  0  0  0  0  0
  -17.0000  -15.4910   39.7200 C   0  0  0  0  0  2  0  0  0  0  0  0
  -17.2340  -14.4510   39.6350 H   0  0  0  0  0  0  0  0  0  0  0  0
  -16.6810  -14.8070   40.4790 H   0  0  0  0  0  0  0  0  0  0  0  0
  -17.4470  -16.4500   38.6570 C   0  0  0  0  0  3  0  0  0  0  0  0
  -17.4840  -17.5000   38.8650 H   0  0  0  0  0  0  0  0  0  0  0  0
  -17.1650  -16.8150   39.6220 H   0  0  0  0  0  0  0  0  0  0  0  0
  -17.8420  -15.9390   37.3030 S   0  0  1  0  0  0  0  0  0  0  0  0
  -19.1290  -15.4210   37.8750 O   0  0  0  0  0  0  0  0  0  0  0  0
  -16.5550  -16.4570   36.7310 O   0  0  0  0  0  0  0  0  0  0  0  0
  -18.2380  -15.4280   35.9500 C   0  0  0  0  0  0  0  0  0  0  0  0
  -19.1730  -14.9260   35.8200 H   0  0  0  0  0  0  0  0  0  0  0  0
  -17.5840  -15.5650   35.1140 H   0  0  0  0  0  0  0  0  0  0  0  0
  -18.5200  -15.0630   34.9840 H   0  0  0  0  0  0  0  0  0  0  0  0
  -16.9190  -16.7630   41.9850 C   0  0  0  0  0  3  0  0  0  0  0  0
  -17.4400  -16.2440   42.7620 H   0  0  0  0  0  0  0  0  0  0  0  0
  -17.4140  -17.3130   42.7570 H   0  0  0  0  0  0  0  0  0  0  0  0
  -16.8820  -18.2630   41.9790 C   0  0  0  0  0  2  0  0  0  0  0  0
  -16.8450  -19.7620   41.9720 N   0  0  0  0  0  1  0  0  0  0  0  0
  1 45  1  0
  2 12  1  0
  2  1  1  0
  3  2  2  0
  4 10  2  0
  4  3  1  0
  5  4  1  0
  6  7  1  0
  6  5  2  0
  7  8  2  0
  8  9  1  0
  8 10  1  0
  9 15  1  0
 10 11  1  0
 11 16  1  0
 11  1  2  0
 13  3  1  0
 14  6  1  0
 17 18  1  0
 17  9  1  0
 18 24  1  0
 19 25  1  0
 19 18  2  0
 20 19  1  0
 21 20  2  0
 21 23  1  0
 22 21  1  0
 23 17  2  0
 26 23  1  0
 27 20  1  0
 28 27  1  0
 29 28  1  0
 30 28  1  0
 31 37  1  0
 31 28  1  0
 32 31  2  0
 33 34  2  0
 33 32  1  0
 34 35  1  0
 35 36  1  0
 35 37  2  0
 37 41  1  0
 38 32  1  0
 39 33  1  0
 40 34  1  0
 43 42  1  0
 43 47  1  0
 44 43  1  0
 45 44  2  0
 45 46  1  0
 48 44  1  0
 49 51  1  0
 49 50  1  0
 53 55  1  0
 54 53  1  0
 56 57  1  0
 56 58  1  0
 59 60  2  0
 59 56  1  0
 61 59  2  0
 62 59  1  0
 63 62  1  0
 64 62  1  0
 65 62  1  0
 66 68  1  0
 66 67  1  0
 69 66  1  0
 70 69  1  0
M  END
>  <minimizedAffinity>  (265) 
-6.00539207

$$$$

     RDKit          3D

 46 49  0  0  1  0  0  0  0  0999 V2000
  -12.9500  -16.0750   36.9360 C   0  0  0  0  0  0  0  0  0  0  0  0
  -12.2580  -15.1780   35.9530 C   0  0  0  0  0  0  0  0  0  0  0  0
  -13.0560  -14.4530   34.9090 C   0  0  0  0  0  0  0  0  0  0  0  0
  -14.5450  -14.6260   34.8490 C   0  0  0  0  0  0  0  0  0  0  0  0
  -15.2360  -15.5230   35.8320 C   0  0  0  0  0  0  0  0  0  0  0  0
  -14.4390  -16.2480   36.8760 C   0  0  0  0  0  0  0  0  0  0  0  0
  -15.1300  -17.1450   37.8590 Cl  0  0  0  0  0  0  0  0  0  0  0  0
  -11.2340  -15.0590   35.9940 H   0  0  0  0  0  0  0  0  0  0  0  0
  -12.5800  -13.8360   34.2330 H   0  0  0  0  0  0  0  0  0  0  0  0
  -16.2610  -15.6420   35.7910 H   0  0  0  0  0  0  0  0  0  0  0  0
  -15.3420  -13.9010   33.8060 N   0  0  0  0  0  0  0  0  0  0  0  0
  -16.8260  -14.1010   33.7220 C   0  0  0  0  0  3  0  0  0  0  0  0
  -17.5130  -15.0270   34.6820 N   0  0  0  0  0  0  0  0  0  0  0  0
  -18.9970  -15.2280   34.5990 C   0  0  0  0  0  0  0  0  0  0  0  0
  -19.7950  -14.5030   33.5560 N   0  0  0  0  0  2  0  0  0  0  0  0
  -19.1080  -13.5770   32.5960 C   0  0  0  0  0  0  0  0  0  0  0  0
  -19.6270  -12.7330   31.4700 S   0  0  0  0  0  0  0  0  0  0  0  0
  -18.4640  -12.0100   30.8570 C   0  0  0  0  0  0  0  0  0  0  0  0
  -17.2260  -12.4080   31.6050 C   0  0  0  0  0  0  0  0  0  0  0  0
  -17.6240  -13.3770   32.6790 C   0  0  0  0  0  0  0  0  0  0  0  0
  -14.8910  -13.2930   33.1760 H   0  0  0  0  0  0  0  0  0  0  0  0
  -19.4700  -15.8650   35.2600 H   0  0  0  0  0  0  0  0  0  0  0  0
  -16.2690  -12.0740   31.4140 H   0  0  0  0  0  0  0  0  0  0  0  0
  -18.5280  -11.0570   29.7010 C   0  0  0  0  0  0  0  0  0  0  0  0
  -17.3550  -10.4960   28.9550 C   0  0  0  0  0  0  0  0  0  0  0  0
  -17.8780   -9.5900   27.8810 C   0  0  0  0  0  0  0  0  0  0  0  0
  -19.3760   -9.5920   27.9620 C   0  0  0  0  0  0  0  0  0  0  0  0
  -19.7770  -10.4990   29.0870 O   0  0  0  0  0  0  0  0  0  0  0  0
  -16.3610  -10.6980   29.1480 H   0  0  0  0  0  0  0  0  0  0  0  0
  -17.3080   -9.0590   27.2040 H   0  0  0  0  0  0  0  0  0  0  0  0
  -20.0170   -9.0620   27.3520 H   0  0  0  0  0  0  0  0  0  0  0  0
  -12.1520  -16.8000   37.9790 O   0  0  0  0  0  1  0  0  0  0  0  0
  -11.0790  -17.7640   37.5670 C   0  0  0  0  0  3  0  0  0  0  0  0
  -11.3310  -18.6310   36.9920 H   0  0  0  0  0  0  0  0  0  0  0  0
  -12.0960  -17.9430   37.2860 H   0  0  0  0  0  0  0  0  0  0  0  0
   -6.4090  -19.5730   38.9520 F   0  0  0  0  0  0  0  0  0  0  0  0
   -7.3190  -18.4180   38.6550 C   0  0  0  0  0  0  0  0  0  0  0  0
   -6.8040  -17.0120   38.7520 C   0  0  0  0  0  0  0  0  0  0  0  0
   -7.7140  -15.8580   38.4550 C   0  0  0  0  0  0  0  0  0  0  0  0
   -9.1390  -16.1080   38.0600 C   0  0  0  0  0  0  0  0  0  0  0  0
   -9.6540  -17.5140   37.9620 C   0  0  0  0  0  0  0  0  0  0  0  0
   -8.7440  -18.6680   38.2600 C   0  0  0  0  0  0  0  0  0  0  0  0
   -5.8230  -16.8400   39.0240 H   0  0  0  0  0  0  0  0  0  0  0  0
   -7.3590  -14.8910   38.5220 H   0  0  0  0  0  0  0  0  0  0  0  0
   -9.7650  -15.3140   37.8550 H   0  0  0  0  0  0  0  0  0  0  0  0
   -9.0990  -19.6360   38.1930 H   0  0  0  0  0  0  0  0  0  0  0  0
  1 32  1  0
  2  8  1  0
  2  1  2  0
  3  2  1  0
  4  3  2  0
  4  5  1  0
  5  6  2  0
  6  1  1  0
  6  7  1  0
  9  3  1  0
 10  5  1  0
 11  4  1  0
 12 11  1  0
 12 13  1  0
 14 13  2  0
 14 22  1  0
 15 14  1  0
 16 20  2  0
 16 15  1  0
 17 16  1  0
 18 17  1  0
 18 19  2  0
 19 20  1  0
 20 12  1  0
 21 11  1  0
 23 19  1  0
 24 18  1  0
 25 29  1  0
 25 24  2  0
 26 27  2  0
 26 25  1  0
 27 28  1  0
 28 24  1  0
 30 26  1  0
 31 27  1  0
 33 41  1  0
 34 33  1  0
 35 33  1  0
 37 38  1  0
 37 36  1  0
 38 43  1  0
 39 44  1  0
 39 38  2  0
 40 39  1  0
 41 40  2  0
 41 42  1  0
 42 37  2  0
 45 40  1  0
 46 42  1  0
M  END
>  <minimizedAffinity>  (266) 
-9.49530602

$$$$

     RDKit          3D

 51 54  0  0  0  0  0  0  0  0999 V2000
  -16.6150  -16.1010   36.9800 C   0  0  0  0  0  0  0  0  0  0  0  0
  -15.1820  -16.5320   37.0870 C   0  0  0  0  0  0  0  0  0  0  0  0
  -15.0120  -17.2530   38.3910 C   0  0  0  0  0  0  0  0  0  0  0  0
  -16.3390  -17.2680   39.0890 C   0  0  0  0  0  0  0  0  0  0  0  0
  -17.3310  -16.5560   38.2170 S   0  0  0  0  0  0  0  0  0  0  0  0
  -14.4440  -16.3620   36.3870 H   0  0  0  0  0  0  0  0  0  0  0  0
  -15.5500  -13.0690   32.3640 C   0  0  0  0  0  0  0  0  0  0  0  0
  -17.0170  -13.2380   32.6260 C   0  0  0  0  0  0  0  0  0  0  0  0
  -17.4800  -14.0210   33.8180 C   0  0  0  0  0  0  0  0  0  0  0  0
  -18.8500  -14.3540   34.3300 N   0  0  0  0  0  0  0  0  0  0  0  0
  -18.6930  -15.1740   35.5770 C   0  0  0  0  0  0  0  0  0  0  0  0
  -17.2260  -15.3470   35.8350 N   0  0  0  0  0  0  0  0  0  0  0  0
  -16.4770  -14.6350   34.7480 C   0  0  0  0  0  0  0  0  0  0  0  0
  -15.0090  -14.4660   34.4860 C   0  0  0  0  0  0  0  0  0  0  0  0
  -14.5460  -13.6830   33.2930 C   0  0  0  0  0  0  0  0  0  0  0  0
  -17.7080  -12.8150   31.9860 H   0  0  0  0  0  0  0  0  0  0  0  0
  -19.4600  -15.5520   36.1550 H   0  0  0  0  0  0  0  0  0  0  0  0
  -14.3190  -14.8880   35.1250 H   0  0  0  0  0  0  0  0  0  0  0  0
  -15.0870  -12.2860   31.1700 O   0  0  0  0  0  0  0  0  0  0  0  0
  -16.0510  -11.4070   30.4300 C   0  0  0  0  0  0  0  0  0  0  0  0
  -17.0690  -11.3390   30.7520 H   0  0  0  0  0  0  0  0  0  0  0  0
  -15.7200  -10.8490   29.5790 H   0  0  0  0  0  0  0  0  0  0  0  0
  -16.7390  -10.7800   29.9010 H   0  0  0  0  0  0  0  0  0  0  0  0
  -13.0790  -13.5140   33.0300 O   0  0  0  0  0  0  0  0  0  0  0  0
  -12.1180  -14.5970   33.4200 C   0  0  0  0  0  0  0  0  0  0  0  0
  -11.0710  -14.4770   33.2330 H   0  0  0  0  0  0  0  0  0  0  0  0
  -12.4780  -15.4910   33.8860 H   0  0  0  0  0  0  0  0  0  0  0  0
  -11.4320  -15.3700   33.6990 H   0  0  0  0  0  0  0  0  0  0  0  0
  -16.6260  -17.8870   40.4260 C   0  0  0  0  0  0  0  0  0  0  0  0
  -15.9360  -19.1570   40.8270 N   0  0  0  0  0  0  0  0  0  0  0  0
  -17.6010  -17.2350   41.3600 O   0  0  0  0  0  0  0  0  0  0  0  0
  -15.2950  -19.5850   40.2140 H   0  0  0  0  0  0  0  0  0  0  0  0
  -16.1240  -19.5630   41.7050 H   0  0  0  0  0  0  0  0  0  0  0  0
  -13.7380  -17.8540   38.9060 O   0  0  0  0  0  0  0  0  0  0  0  0
  -12.4630  -17.0650   38.8600 C   0  0  0  0  0  0  0  0  0  0  0  0
  -12.2720  -16.3140   39.5980 H   0  0  0  0  0  0  0  0  0  0  0  0
  -11.5540  -16.5010   38.8280 H   0  0  0  0  0  0  0  0  0  0  0  0
  -11.4570  -17.3270   37.7800 C   0  0  0  0  0  0  0  0  0  0  0  0
  -11.7850  -17.5500   36.7860 H   0  0  0  0  0  0  0  0  0  0  0  0
  -10.7390  -17.5150   37.0080 H   0  0  0  0  0  0  0  0  0  0  0  0
   -9.9910  -17.2780   38.0920 C   0  0  0  0  0  0  0  0  0  0  0  0
   -9.2560  -15.9710   38.0370 C   0  0  0  0  0  0  0  0  0  0  0  0
   -7.7890  -15.9220   38.3490 C   0  0  0  0  0  0  0  0  0  0  0  0
   -7.0580  -17.1790   38.7170 C   0  0  0  0  0  0  0  0  0  0  0  0
   -7.7930  -18.4860   38.7730 C   0  0  0  0  0  0  0  0  0  0  0  0
   -9.2600  -18.5350   38.4600 C   0  0  0  0  0  0  0  0  0  0  0  0
   -9.7590  -15.1070   37.7840 H   0  0  0  0  0  0  0  0  0  0  0  0
   -7.2840  -15.0230   38.3110 H   0  0  0  0  0  0  0  0  0  0  0  0
   -6.0490  -17.1440   38.9320 H   0  0  0  0  0  0  0  0  0  0  0  0
   -7.2890  -19.3500   39.0260 H   0  0  0  0  0  0  0  0  0  0  0  0
   -9.7650  -19.4340   38.4980 H   0  0  0  0  0  0  0  0  0  0  0  0
  1  2  2  0
  1  5  1  0
  2  3  1  0
  3 34  1  0
  3  4  2  0
  4 29  1  0
  5  4  1  0
  6  2  1  0
  7  8  2  0
  7 15  1  0
  8  9  1  0
  9 10  1  0
  9 13  2  0
 10 11  2  0
 11 12  1  0
 11 17  1  0
 12  1  1  0
 13 12  1  0
 14 13  1  0
 14 18  1  0
 15 14  2  0
 16  8  1  0
 19  7  1  0
 20 21  1  0
 20 19  1  0
 22 20  1  0
 23 20  1  0
 24 15  1  0
 24 25  1  0
 25 28  1  0
 25 27  1  0
 26 25  1  0
 29 30  1  0
 29 31  2  0
 30 33  1  0
 32 30  1  0
 35 34  1  0
 35 36  1  0
 37 35  1  0
 38 41  1  0
 38 35  1  0
 39 38  1  0
 40 38  1  0
 41 46  1  0
 42 41  2  0
 42 43  1  0
 43 44  2  0
 44 45  1  0
 44 49  1  0
 45 50  1  0
 46 51  1  0
 46 45  2  0
 47 42  1  0
 48 43  1  0
M  END
>  <minimizedAffinity>  (267) 
-9.48243237

$$$$

     RDKit          3D

 59 63  0  0  0  0  0  0  0  0999 V2000
  -13.3930  -15.9850   40.7080 C   0  0  0  0  0  0  0  0  0  0  0  0
  -13.9770  -14.8870   41.5470 C   0  0  0  0  0  0  0  0  0  0  0  0
  -15.3910  -14.4410   41.3210 C   0  0  0  0  0  0  0  0  0  0  0  0
  -16.2210  -15.0920   40.2550 C   0  0  0  0  0  0  0  0  0  0  0  0
  -15.6370  -16.1900   39.4160 C   0  0  0  0  0  0  0  0  0  0  0  0
  -14.2230  -16.6360   39.6430 C   0  0  0  0  0  0  0  0  0  0  0  0
  -13.4050  -14.4390   42.2810 H   0  0  0  0  0  0  0  0  0  0  0  0
  -15.7920  -13.6850   41.8980 H   0  0  0  0  0  0  0  0  0  0  0  0
  -16.2090  -16.6380   38.6830 H   0  0  0  0  0  0  0  0  0  0  0  0
  -13.8220  -17.3920   39.0650 H   0  0  0  0  0  0  0  0  0  0  0  0
  -11.6440  -16.6720   38.3700 O   0  0  0  0  0  0  0  0  0  0  0  0
  -11.1040  -16.7750   39.7660 C   0  0  0  0  0  0  0  0  0  0  0  0
  -11.9790  -16.4310   40.9350 N   0  0  0  0  0  0  0  0  0  0  0  0
   -9.6900  -17.2210   39.9930 N   0  0  0  0  0  0  0  0  0  0  0  0
  -11.6250  -16.4990   41.8510 H   0  0  0  0  0  0  0  0  0  0  0  0
   -9.3360  -17.2890   40.9090 H   0  0  0  0  0  0  0  0  0  0  0  0
   -8.8160  -17.5650   38.8230 C   0  0  0  0  0  0  0  0  0  0  0  0
   -9.1990  -17.1180   37.4430 C   0  0  0  0  0  0  0  0  0  0  0  0
   -8.3240  -17.4620   36.2740 C   0  0  0  0  0  0  0  0  0  0  0  0
   -7.0670  -18.2520   36.4850 C   0  0  0  0  0  0  0  0  0  0  0  0
   -6.6830  -18.6980   37.8650 C   0  0  0  0  0  0  0  0  0  0  0  0
   -7.5580  -18.3540   39.0340 C   0  0  0  0  0  0  0  0  0  0  0  0
   -7.1750  -18.8000   40.4140 F   0  0  0  0  0  0  0  0  0  0  0  0
  -10.0640  -16.5750   37.2980 H   0  0  0  0  0  0  0  0  0  0  0  0
   -6.4650  -18.4880   35.6810 H   0  0  0  0  0  0  0  0  0  0  0  0
   -5.8180  -19.2410   38.0100 H   0  0  0  0  0  0  0  0  0  0  0  0
   -8.7070  -17.0160   34.8940 C   0  0  0  0  0  0  0  0  0  0  0  0
   -9.0910  -16.5700   33.5140 F   0  0  0  0  0  0  0  0  0  0  0  0
   -8.1240  -18.2750   34.3250 F   0  0  0  0  0  0  0  0  0  0  0  0
   -9.2910  -15.7570   35.4630 F   0  0  0  0  0  0  0  0  0  0  0  0
  -17.6350  -14.6460   40.0280 O   0  0  0  0  0  0  0  0  0  0  0  0
  -18.0340  -14.0610   38.7060 C   0  0  0  0  0  0  0  0  0  0  0  0
  -18.9300  -12.8590   38.6580 C   0  0  0  0  0  0  0  0  0  0  0  0
  -19.3290  -12.2740   37.3350 C   0  0  0  0  0  0  0  0  0  0  0  0
  -18.8320  -12.8900   36.0620 C   0  0  0  0  0  0  0  0  0  0  0  0
  -19.0540  -12.5360   34.6210 N   0  0  0  0  0  0  0  0  0  0  0  0
  -18.2960  -13.5180   33.7790 C   0  0  0  0  0  0  0  0  0  0  0  0
  -18.2390  -13.5360   32.2800 N   0  0  0  0  0  0  0  0  0  0  0  0
  -18.9870  -12.5040   31.4890 C   0  0  0  0  0  0  0  0  0  0  0  0
  -19.7910  -11.4550   32.1970 O   0  0  0  0  0  0  0  0  0  0  0  0
  -17.6040  -14.4800   34.7000 N   0  0  0  0  0  0  0  0  0  0  0  0
  -17.9350  -14.0920   36.1100 C   0  0  0  0  0  0  0  0  0  0  0  0
  -17.5360  -14.6770   37.4320 C   0  0  0  0  0  0  0  0  0  0  0  0
  -19.2730  -12.4350   39.5340 H   0  0  0  0  0  0  0  0  0  0  0  0
  -19.9460  -11.4470   37.3020 H   0  0  0  0  0  0  0  0  0  0  0  0
  -19.6020  -11.7890   34.2870 H   0  0  0  0  0  0  0  0  0  0  0  0
  -17.7100  -14.2260   31.8160 H   0  0  0  0  0  0  0  0  0  0  0  0
  -16.9190  -15.5040   37.4660 H   0  0  0  0  0  0  0  0  0  0  0  0
  -18.9300  -12.5220   29.9900 C   0  0  0  0  0  0  0  0  0  0  0  0
  -19.7940  -13.4750   29.2180 C   0  0  0  0  0  0  0  0  0  0  0  0
  -19.7370  -13.4920   27.7190 C   0  0  0  0  0  0  0  0  0  0  0  0
  -18.8160  -12.5580   26.9930 C   0  0  0  0  0  0  0  0  0  0  0  0
  -17.9510  -11.6060   27.7650 C   0  0  0  0  0  0  0  0  0  0  0  0
  -18.0080  -11.5880   29.2640 C   0  0  0  0  0  0  0  0  0  0  0  0
  -20.4280  -14.1170   29.7180 H   0  0  0  0  0  0  0  0  0  0  0  0
  -20.3320  -14.1480   27.1880 H   0  0  0  0  0  0  0  0  0  0  0  0
  -18.7760  -12.5700   25.9610 H   0  0  0  0  0  0  0  0  0  0  0  0
  -17.3170  -10.9630   27.2650 H   0  0  0  0  0  0  0  0  0  0  0  0
  -17.4140  -10.9330   29.7950 H   0  0  0  0  0  0  0  0  0  0  0  0
  1 13  1  0
  1  2  1  0
  2  7  1  0
  3  2  2  0
  3  8  1  0
  4  3  1  0
  5  6  1  0
  5  4  2  0
  6  1  2  0
  9  5  1  0
 10  6  1  0
 11 12  2  0
 12 14  1  0
 12 13  1  0
 13 15  1  0
 14 16  1  0
 17 22  1  0
 17 14  1  0
 18 17  2  0
 19 20  2  0
 19 18  1  0
 20 21  1  0
 21 26  1  0
 21 22  2  0
 22 23  1  0
 24 18  1  0
 25 20  1  0
 27 30  1  0
 27 19  1  0
 28 27  1  0
 29 27  1  0
 31  4  1  0
 32 31  1  0
 33 32  1  0
 33 44  1  0
 34 33  2  0
 35 42  2  0
 35 34  1  0
 36 35  1  0
 37 36  1  0
 37 41  2  0
 38 37  1  0
 39 40  2  0
 39 38  1  0
 41 42  1  0
 42 43  1  0
 43 48  1  0
 43 32  2  0
 45 34  1  0
 46 36  1  0
 47 38  1  0
 49 39  1  0
 50 55  1  0
 50 49  2  0
 51 50  1  0
 52 51  2  0
 52 53  1  0
 53 54  2  0
 54 59  1  0
 54 49  1  0
 56 51  1  0
 57 52  1  0
 58 53  1  0
M  END
>  <minimizedAffinity>  (268) 
3.77137208

$$$$

     RDKit          3D

 50 52  0  0  0  0  0  0  0  0999 V2000
  -16.0110  -16.0420   38.5930 C   0  0  0  0  0  0  0  0  0  0  0  0
  -14.8650  -16.8360   38.0370 C   0  0  0  0  0  0  0  0  0  0  0  0
  -13.7200  -16.7330   39.0010 C   0  0  0  0  0  0  0  0  0  0  0  0
  -14.1580  -15.8770   40.1530 C   0  0  0  0  0  0  0  0  0  0  0  0
  -15.5740  -15.4490   39.9010 S   0  0  0  0  0  0  0  0  0  0  0  0
  -14.8650  -17.3590   37.1490 H   0  0  0  0  0  0  0  0  0  0  0  0
  -17.2660  -14.2390   34.2470 C   0  0  0  0  0  0  0  0  0  0  0  0
  -18.7480  -14.2580   34.0150 C   0  0  0  0  0  0  0  0  0  0  0  0
  -19.6660  -14.7960   35.0720 C   0  0  0  0  0  0  0  0  0  0  0  0
  -19.1020  -15.3150   36.3610 C   0  0  0  0  0  0  0  0  0  0  0  0
  -19.7540  -15.9020   37.5780 N   0  0  0  0  0  0  0  0  0  0  0  0
  -18.6750  -16.2460   38.5620 C   0  0  0  0  0  0  0  0  0  0  0  0
  -17.3570  -15.8720   37.9540 N   0  0  0  0  0  0  0  0  0  0  0  0
  -17.6200  -15.2960   36.5930 C   0  0  0  0  0  0  0  0  0  0  0  0
  -16.7020  -14.7580   35.5360 C   0  0  0  0  0  0  0  0  0  0  0  0
  -19.1360  -13.9000   33.1280 H   0  0  0  0  0  0  0  0  0  0  0  0
  -20.6850  -14.8090   34.9120 H   0  0  0  0  0  0  0  0  0  0  0  0
  -18.8160  -16.6660   39.4940 H   0  0  0  0  0  0  0  0  0  0  0  0
  -15.6820  -14.7450   35.6960 H   0  0  0  0  0  0  0  0  0  0  0  0
  -16.3480  -13.7010   33.1900 O   0  0  0  0  0  0  0  0  0  0  0  0
  -14.8800  -13.5670   33.4680 C   0  0  0  0  0  0  0  0  0  0  0  0
  -14.4870  -13.8560   34.4210 H   0  0  0  0  0  0  0  0  0  0  0  0
  -14.2250  -13.1830   32.7140 H   0  0  0  0  0  0  0  0  0  0  0  0
  -13.8330  -13.4720   33.6670 H   0  0  0  0  0  0  0  0  0  0  0  0
  -13.3260  -15.5120   41.3460 C   0  0  0  0  0  0  0  0  0  0  0  0
  -13.3830  -14.1190   41.9020 N   0  0  0  0  0  0  0  0  0  0  0  0
  -12.4360  -16.5370   41.9830 O   0  0  0  0  0  0  0  0  0  0  0  0
  -13.9670  -13.4460   41.4840 H   0  0  0  0  0  0  0  0  0  0  0  0
  -12.8370  -13.8790   42.6860 H   0  0  0  0  0  0  0  0  0  0  0  0
  -12.3740  -17.3750   38.8420 O   0  0  0  0  0  1  0  0  0  0  0  0
  -11.2000  -16.5540   38.3980 C   0  0  0  0  0  3  0  0  0  0  0  0
  -11.3640  -16.7340   39.4400 H   0  0  0  0  0  0  0  0  0  0  0  0
  -10.9700  -16.3030   36.9370 C   0  0  0  0  0  0  0  0  0  0  0  0
  -11.9610  -15.4990   36.1490 C   0  0  0  0  0  0  0  0  0  0  0  0
  -11.7310  -15.2480   34.6880 C   0  0  0  0  0  0  0  0  0  0  0  0
  -10.5100  -15.8000   34.0160 C   0  0  0  0  0  0  0  0  0  0  0  0
   -9.5170  -16.6040   34.8040 C   0  0  0  0  0  0  0  0  0  0  0  0
   -9.7480  -16.8550   36.2640 C   0  0  0  0  0  0  0  0  0  0  0  0
  -12.8010  -15.1190   36.6120 H   0  0  0  0  0  0  0  0  0  0  0  0
  -12.4130  -14.6950   34.1460 H   0  0  0  0  0  0  0  0  0  0  0  0
  -10.3510  -15.6270   33.0100 H   0  0  0  0  0  0  0  0  0  0  0  0
   -8.6780  -16.9840   34.3400 H   0  0  0  0  0  0  0  0  0  0  0  0
   -8.7570  -17.6590   37.0520 C   0  0  0  0  0  0  0  0  0  0  0  0
   -7.7650  -18.4630   37.8400 F   0  0  0  0  0  0  0  0  0  0  0  0
   -9.4920  -18.9160   36.6950 F   0  0  0  0  0  0  0  0  0  0  0  0
   -8.0210  -16.4020   37.4090 F   0  0  0  0  0  0  0  0  0  0  0  0
  -10.2560  -15.9850   39.4150 C   0  0  0  0  0  0  0  0  0  0  0  0
  -10.4190  -16.1640   40.4570 H   0  0  0  0  0  0  0  0  0  0  0  0
   -9.4170  -15.3990   39.0980 H   0  0  0  0  0  0  0  0  0  0  0  0
   -9.5810  -15.5780   40.1400 H   0  0  0  0  0  0  0  0  0  0  0  0
  1  5  1  0
  2  1  2  0
  2  3  1  0
  3  4  2  0
  4 25  1  0
  5  4  1  0
  6  2  1  0
  7 15  1  0
  8  7  2  0
  8  9  1  0
  9 10  2  0
 10 14  1  0
 10 11  1  0
 11 12  2  0
 12 18  1  0
 13 12  1  0
 13  1  1  0
 14 13  1  0
 15 19  1  0
 15 14  2  0
 16  8  1  0
 17  9  1  0
 20 21  1  0
 20  7  1  0
 21 24  1  0
 21 22  1  0
 23 21  1  0
 25 26  1  0
 25 27  2  0
 26 29  1  0
 28 26  1  0
 30  3  1  0
 31 47  1  0
 31 32  1  0
 33 31  1  0
 34 39  1  0
 34 33  2  0
 35 34  1  0
 36 35  2  0
 36 37  1  0
 37 38  2  0
 38 33  1  0
 38 43  1  0
 40 35  1  0
 41 36  1  0
 42 37  1  0
 43 46  1  0
 43 44  1  0
 45 43  1  0
 47 50  1  0
 47 48  1  0
 49 47  1  0
M  END
>  <minimizedAffinity>  (269) 
-10.8398027

$$$$

     RDKit          3D

 34 37  0  0  0  0  0  0  0  0999 V2000
   -7.1170  -16.8620   38.4680 N   0  0  0  0  0  0  0  0  0  0  0  0
   -8.5210  -16.6340   37.9920 C   0  0  0  0  0  0  0  0  0  0  0  0
   -8.9180  -15.9800   36.7020 N   0  0  0  0  0  0  0  0  0  0  0  0
  -10.4170  -15.9620   36.6340 C   0  0  0  0  0  0  0  0  0  0  0  0
  -10.9450  -16.6050   37.8820 C   0  0  0  0  0  0  0  0  0  0  0  0
   -9.7730  -17.0210   38.7210 S   0  0  0  0  0  0  0  0  0  0  0  0
   -6.9570  -17.3020   39.3340 H   0  0  0  0  0  0  0  0  0  0  0  0
   -6.3560  -16.5720   37.9160 H   0  0  0  0  0  0  0  0  0  0  0  0
  -12.3920  -16.7990   38.2300 C   0  0  0  0  0  0  0  0  0  0  0  0
  -13.3080  -17.4920   37.2660 C   0  0  0  0  0  0  0  0  0  0  0  0
  -14.7550  -17.6860   37.6140 C   0  0  0  0  0  0  0  0  0  0  0  0
  -15.2840  -17.1850   38.9250 C   0  0  0  0  0  0  0  0  0  0  0  0
  -16.7300  -17.3790   39.2730 N   0  0  0  0  0  0  0  0  0  0  0  0
  -17.2600  -16.8790   40.5850 C   0  0  0  0  0  0  0  0  0  0  0  0
  -16.3430  -16.1850   41.5480 C   0  0  0  0  0  0  0  0  0  0  0  0
  -14.8970  -15.9910   41.2000 C   0  0  0  0  0  0  0  0  0  0  0  0
  -14.3670  -16.4920   39.8890 C   0  0  0  0  0  0  0  0  0  0  0  0
  -12.9210  -16.2980   39.5410 N   0  0  0  0  0  0  0  0  0  0  0  0
  -12.9440  -17.8370   36.3640 H   0  0  0  0  0  0  0  0  0  0  0  0
  -15.3850  -18.1630   36.9510 H   0  0  0  0  0  0  0  0  0  0  0  0
  -18.2550  -17.0120   40.8240 H   0  0  0  0  0  0  0  0  0  0  0  0
  -16.7070  -15.8410   42.4500 H   0  0  0  0  0  0  0  0  0  0  0  0
  -14.2660  -15.5140   41.8630 H   0  0  0  0  0  0  0  0  0  0  0  0
  -11.2420  -15.4000   35.5150 C   0  0  0  0  0  0  0  0  0  0  0  0
  -10.8050  -15.5890   34.0920 C   0  0  0  0  0  0  0  0  0  0  0  0
  -11.6300  -15.0270   32.9730 C   0  0  0  0  0  0  0  0  0  0  0  0
  -12.8930  -14.2750   33.2760 C   0  0  0  0  0  0  0  0  0  0  0  0
  -13.7180  -13.7130   32.1570 F   0  0  0  0  0  0  0  0  0  0  0  0
  -13.3300  -14.0860   34.6990 C   0  0  0  0  0  0  0  0  0  0  0  0
  -12.5040  -14.6480   35.8170 C   0  0  0  0  0  0  0  0  0  0  0  0
   -9.9370  -16.1070   33.8840 H   0  0  0  0  0  0  0  0  0  0  0  0
  -11.3300  -15.1570   31.9940 H   0  0  0  0  0  0  0  0  0  0  0  0
  -14.1980  -13.5690   34.9060 H   0  0  0  0  0  0  0  0  0  0  0  0
  -12.8050  -14.5180   36.7960 H   0  0  0  0  0  0  0  0  0  0  0  0
  1  7  1  0
  2  1  1  0
  2  6  1  0
  3  2  2  0
  4  3  1  0
  4  5  2  0
  5  9  1  0
  5  6  1  0
  8  1  1  0
  9 18  1  0
 10 11  1  0
 10  9  2  0
 11 12  2  0
 12 13  1  0
 12 17  1  0
 13 14  2  0
 14 21  1  0
 14 15  1  0
 15 22  1  0
 16 15  2  0
 16 23  1  0
 17 16  1  0
 18 17  2  0
 19 10  1  0
 20 11  1  0
 24 30  1  0
 24  4  1  0
 25 24  2  0
 26 27  2  0
 26 25  1  0
 27 29  1  0
 28 27  1  0
 29 33  1  0
 29 30  2  0
 30 34  1  0
 31 25  1  0
 32 26  1  0
M  END
>  <minimizedAffinity>  (270) 
-9.12944221

$$$$

     RDKit          3D

 43 46  0  0  1  0  0  0  0  0999 V2000
  -14.9810  -14.6270   34.6500 N   0  0  0  0  0  0  0  0  0  0  0  0
  -13.5250  -14.9860   34.6900 C   0  0  0  0  0  3  0  0  0  0  0  0
  -12.6660  -14.7690   33.4800 N   0  0  0  0  0  0  0  0  0  0  0  0
  -11.2100  -15.1290   33.5190 C   0  0  0  0  0  0  0  0  0  0  0  0
  -10.6140  -15.7050   34.7690 N   0  0  0  0  0  2  0  0  0  0  0  0
  -11.4730  -15.9220   35.9790 C   0  0  0  0  0  0  0  0  0  0  0  0
  -12.9280  -15.5630   35.9400 C   0  0  0  0  0  0  0  0  0  0  0  0
  -13.5230  -15.8880   37.2790 C   0  0  0  0  0  0  0  0  0  0  0  0
  -12.4340  -16.4470   38.1450 N   0  0  0  0  0  0  0  0  0  0  0  0
  -11.1670  -16.4690   37.3420 N   0  0  0  0  0  0  0  0  0  0  0  0
  -15.5450  -14.7690   35.4450 H   0  0  0  0  0  0  0  0  0  0  0  0
  -10.6190  -14.9790   32.6860 H   0  0  0  0  0  0  0  0  0  0  0  0
  -14.5070  -15.7500   37.5540 H   0  0  0  0  0  0  0  0  0  0  0  0
   -9.8290  -16.9520   37.8190 C   0  0  0  0  0  0  0  0  0  0  0  0
   -8.7560  -15.9650   38.1680 C   0  0  0  0  0  0  0  0  0  0  0  0
   -7.4180  -16.4480   38.6440 C   0  0  0  0  0  0  0  0  0  0  0  0
   -7.1540  -17.9190   38.7710 C   0  0  0  0  0  0  0  0  0  0  0  0
   -8.2280  -18.9070   38.4220 C   0  0  0  0  0  0  0  0  0  0  0  0
   -9.5660  -18.4230   37.9450 C   0  0  0  0  0  0  0  0  0  0  0  0
   -8.9370  -14.9530   38.0800 H   0  0  0  0  0  0  0  0  0  0  0  0
   -6.6800  -15.7680   38.8840 H   0  0  0  0  0  0  0  0  0  0  0  0
   -6.2340  -18.2510   39.0990 H   0  0  0  0  0  0  0  0  0  0  0  0
   -8.0460  -19.9190   38.5090 H   0  0  0  0  0  0  0  0  0  0  0  0
  -10.3040  -19.1030   37.7050 H   0  0  0  0  0  0  0  0  0  0  0  0
  -15.3350  -12.6130   33.0480 C   0  0  0  0  0  0  0  0  0  0  0  0
  -15.5770  -14.0500   33.4010 N   0  0  0  0  0  0  0  0  0  0  0  0
  -14.7580  -12.0200   33.6650 H   0  0  0  0  0  0  0  0  0  0  0  0
  -17.3740  -12.3190   29.6560 C   0  0  0  0  0  0  0  0  0  0  0  0
  -16.7770  -12.8950   30.9050 C   0  0  0  0  0  0  0  0  0  0  0  0
  -15.9320  -12.0360   31.7980 C   0  0  0  0  0  0  0  0  0  0  0  0
  -15.6830  -10.6010   31.4420 C   0  0  0  0  0  0  0  0  0  0  0  0
  -16.2800  -10.0240   30.1920 C   0  0  0  0  0  0  0  0  0  0  0  0
  -17.1250  -10.8830   29.2990 C   0  0  0  0  0  0  0  0  0  0  0  0
  -16.9480  -13.8830   31.1510 H   0  0  0  0  0  0  0  0  0  0  0  0
  -15.1010  -10.0100   32.0560 H   0  0  0  0  0  0  0  0  0  0  0  0
  -16.1080   -9.0370   29.9460 H   0  0  0  0  0  0  0  0  0  0  0  0
  -17.7220  -10.3070   28.0490 O   0  0  0  0  0  0  0  0  0  0  0  0
  -18.2500  -10.8440   27.4910 H   0  0  0  0  0  0  0  0  0  0  0  0
  -18.2190  -13.1780   28.7630 O   0  0  0  0  0  0  0  0  0  0  0  0
  -19.7140  -13.1340   28.8760 C   0  0  0  0  0  0  0  0  0  0  0  0
  -20.1780  -12.4910   29.5950 H   0  0  0  0  0  0  0  0  0  0  0  0
  -20.3170  -13.7470   28.2390 H   0  0  0  0  0  0  0  0  0  0  0  0
  -20.7810  -13.1040   28.9570 H   0  0  0  0  0  0  0  0  0  0  0  0
  1 11  1  0
  2  1  1  0
  2  7  1  0
  3  4  2  0
  3  2  1  0
  4  5  1  0
  5  6  1  0
  6 10  1  0
  7  6  2  0
  7  8  1  0
  8 13  1  0
  8  9  2  0
 10 14  1  0
 10  9  1  0
 12  4  1  0
 14 19  2  0
 14 15  1  0
 15 16  2  0
 16 17  1  0
 16 21  1  0
 17 22  1  0
 18 23  1  0
 18 17  2  0
 19 18  1  0
 20 15  1  0
 24 19  1  0
 25 26  2  0
 25 27  1  0
 26  1  1  0
 28 29  1  0
 29 34  1  0
 29 30  2  0
 30 25  1  0
 31 30  1  0
 31 35  1  0
 32 31  2  0
 33 28  2  0
 33 32  1  0
 36 32  1  0
 37 33  1  0
 38 37  1  0
 39 40  1  0
 39 28  1  0
 40 43  1  0
 40 41  1  0
 42 40  1  0
M  END
>  <minimizedAffinity>  (271) 
-8.09159374

$$$$

     RDKit          3D

 48 51  0  0  0  0  0  0  0  0999 V2000
  -13.7370  -15.1210   36.1830 C   0  0  0  0  0  0  0  0  0  0  0  0
  -15.1660  -15.4630   35.8810 C   0  0  0  0  0  0  0  0  0  0  0  0
  -15.8290  -14.9020   34.6570 C   0  0  0  0  0  0  0  0  0  0  0  0
  -15.0630  -14.0000   33.7360 C   0  0  0  0  0  0  0  0  0  0  0  0
  -13.6340  -13.6590   34.0380 C   0  0  0  0  0  0  0  0  0  0  0  0
  -12.9710  -14.2200   35.2610 C   0  0  0  0  0  0  0  0  0  0  0  0
  -15.6940  -16.0840   36.5150 H   0  0  0  0  0  0  0  0  0  0  0  0
  -16.8130  -15.1370   34.4500 H   0  0  0  0  0  0  0  0  0  0  0  0
  -13.1060  -13.0380   33.4040 H   0  0  0  0  0  0  0  0  0  0  0  0
  -11.9880  -13.9850   35.4690 H   0  0  0  0  0  0  0  0  0  0  0  0
  -10.9610  -16.6220   38.5890 C   0  0  0  0  0  0  0  0  0  0  0  0
  -11.7490  -16.8030   39.8530 C   0  0  0  0  0  0  0  0  0  0  0  0
  -13.2000  -16.4240   39.8930 C   0  0  0  0  0  0  0  0  0  0  0  0
  -13.8630  -15.8630   38.6690 C   0  0  0  0  0  0  0  0  0  0  0  0
  -13.0750  -15.6820   37.4060 C   0  0  0  0  0  0  0  0  0  0  0  0
  -11.6240  -16.0610   37.3660 C   0  0  0  0  0  0  0  0  0  0  0  0
  -11.2930  -17.1890   40.6940 H   0  0  0  0  0  0  0  0  0  0  0  0
  -13.7420  -16.5480   40.7620 H   0  0  0  0  0  0  0  0  0  0  0  0
  -11.0820  -15.9370   36.4960 H   0  0  0  0  0  0  0  0  0  0  0  0
   -7.4650  -18.3070   38.5690 C   0  0  0  0  0  0  0  0  0  0  0  0
   -7.0920  -16.8630   38.4060 N   0  0  0  0  0  0  0  0  0  0  0  0
   -8.3560  -16.0570   38.3930 N   0  0  0  0  0  0  0  0  0  0  0  0
   -9.5110  -17.0010   38.5490 C   0  0  0  0  0  0  0  0  0  0  0  0
   -8.9600  -18.3920   38.6580 O   0  0  0  0  0  0  0  0  0  0  0  0
   -6.5100  -19.4630   38.6330 C   0  0  0  0  0  0  0  0  0  0  0  0
   -6.8840  -20.4590   38.7520 H   0  0  0  0  0  0  0  0  0  0  0  0
   -5.4570  -19.2920   38.5590 H   0  0  0  0  0  0  0  0  0  0  0  0
   -5.8300  -20.2870   38.6780 H   0  0  0  0  0  0  0  0  0  0  0  0
  -15.3130  -15.4840   38.7090 C   0  0  0  0  0  0  0  0  0  0  0  0
  -15.8760  -15.6130   39.6110 H   0  0  0  0  0  0  0  0  0  0  0  0
  -15.7860  -15.0840   37.8370 H   0  0  0  0  0  0  0  0  0  0  0  0
  -16.3480  -15.2130   38.7380 H   0  0  0  0  0  0  0  0  0  0  0  0
  -15.7260  -13.4400   32.5130 C   0  0  0  0  0  0  0  0  0  0  0  0
  -15.1520  -13.7180   31.1550 O   0  0  0  0  0  0  0  0  0  0  0  0
  -16.9620  -12.6010   32.6470 N   0  0  0  0  0  0  0  0  0  0  0  0
  -17.3380  -12.4180   33.5380 H   0  0  0  0  0  0  0  0  0  0  0  0
  -17.6240  -12.0400   31.4240 C   0  0  0  0  0  0  0  0  0  0  0  0
  -17.7850  -10.5570   31.2710 C   0  0  0  0  0  0  0  0  0  0  0  0
  -18.4480   -9.9960   30.0480 C   0  0  0  0  0  0  0  0  0  0  0  0
  -18.9500  -10.9190   28.9770 C   0  0  0  0  0  0  0  0  0  0  0  0
  -18.7890  -12.4020   29.1300 C   0  0  0  0  0  0  0  0  0  0  0  0
  -18.1260  -12.9630   30.3530 C   0  0  0  0  0  0  0  0  0  0  0  0
  -17.4400   -9.9210   32.0080 H   0  0  0  0  0  0  0  0  0  0  0  0
  -18.5590   -8.9750   29.9430 H   0  0  0  0  0  0  0  0  0  0  0  0
  -19.4060  -10.5330   28.1350 H   0  0  0  0  0  0  0  0  0  0  0  0
  -18.0150  -13.9840   30.4580 H   0  0  0  0  0  0  0  0  0  0  0  0
  -19.2910  -13.3250   28.0590 C   0  0  0  0  0  2  0  0  0  0  0  0
  -19.7920  -14.2480   26.9880 N   0  0  0  0  0  1  0  0  0  0  0  0
  1 15  1  0
  2  1  1  0
  2  7  1  0
  3  2  2  0
  4  5  2  0
  4  3  1  0
  5  6  1  0
  6 10  1  0
  6  1  2  0
  8  3  1  0
  9  5  1  0
 11 12  1  0
 12 13  2  0
 12 17  1  0
 13 18  1  0
 14 29  1  0
 14 13  1  0
 15 14  2  0
 16 15  1  0
 16 11  2  0
 19 16  1  0
 20 25  1  0
 20 24  1  0
 21 20  2  0
 22 21  1  0
 22 23  2  0
 23 11  1  0
 23 24  1  0
 25 28  1  0
 25 26  1  0
 27 25  1  0
 29 32  1  0
 29 30  1  0
 31 29  1  0
 33 35  1  0
 33  4  1  0
 34 33  2  0
 35 36  1  0
 37 35  1  0
 38 37  1  0
 38 43  1  0
 39 38  2  0
 40 41  2  0
 40 39  1  0
 41 42  1  0
 42 46  1  0
 42 37  2  0
 44 39  1  0
 45 40  1  0
 47 41  1  0
 48 47  1  0
M  END
>  <minimizedAffinity>  (272) 
-7.5833869

$$$$

     RDKit          3D

 40 41  0  0  0  0  0  0  0  0999 V2000
  -13.9920  -15.5370   36.2470 C   0  0  0  0  0  0  0  0  0  0  0  0
  -15.0750  -15.3570   37.2700 C   0  0  0  0  0  0  0  0  0  0  0  0
  -16.2920  -14.8320   36.5670 C   0  0  0  0  0  0  0  0  0  0  0  0
  -17.6080  -14.5090   37.2080 O   0  0  0  0  0  0  0  0  0  0  0  0
  -15.9600  -14.6880   35.1110 N   0  0  0  0  0  0  0  0  0  0  0  0
  -14.5380  -15.1240   34.9140 C   0  0  0  0  0  0  0  0  0  0  0  0
  -13.7950  -15.1430   33.6110 O   0  0  0  0  0  0  0  0  0  0  0  0
  -16.5690  -14.3640   34.4090 H   0  0  0  0  0  0  0  0  0  0  0  0
  -14.9620  -15.6500   38.7360 N   0  0  0  0  0  0  0  0  0  0  0  0
  -13.9160  -15.1100   39.6660 C   0  0  0  0  0  3  0  0  0  0  0  0
  -14.1820  -15.6610   41.0350 C   0  0  0  0  0  2  0  0  0  0  0  0
  -15.3930  -16.5430   40.9520 C   0  0  0  0  0  3  0  0  0  0  0  0
  -16.1200  -17.3510   41.9860 C   0  0  0  0  0  0  0  0  0  0  0  0
  -17.3270  -18.1520   41.6000 C   0  0  0  0  0  0  0  0  0  0  0  0
  -17.8090  -18.1450   40.1790 C   0  0  0  0  0  0  0  0  0  0  0  0
  -17.0830  -17.3370   39.1450 C   0  0  0  0  0  0  0  0  0  0  0  0
  -15.8750  -16.5360   39.5310 C   0  0  0  0  0  0  0  0  0  0  0  0
  -13.1190  -14.4480   39.3990 H   0  0  0  0  0  0  0  0  0  0  0  0
  -13.2480  -14.8130   40.4470 H   0  0  0  0  0  0  0  0  0  0  0  0
  -13.6100  -15.4610   41.9160 H   0  0  0  0  0  0  0  0  0  0  0  0
  -14.5030  -16.1330   41.9400 H   0  0  0  0  0  0  0  0  0  0  0  0
  -15.7880  -17.3550   42.9630 H   0  0  0  0  0  0  0  0  0  0  0  0
  -17.8270  -18.7080   42.3110 H   0  0  0  0  0  0  0  0  0  0  0  0
  -18.6400  -18.6970   39.9130 H   0  0  0  0  0  0  0  0  0  0  0  0
  -17.4140  -17.3330   38.1670 H   0  0  0  0  0  0  0  0  0  0  0  0
   -9.8300  -17.0530   37.0450 C   0  0  0  0  0  0  0  0  0  0  0  0
  -10.0560  -15.9910   36.0100 C   0  0  0  0  0  0  0  0  0  0  0  0
  -11.4430  -15.4860   35.7440 C   0  0  0  0  0  0  0  0  0  0  0  0
  -12.6040  -16.0430   36.5130 C   0  0  0  0  0  0  0  0  0  0  0  0
  -12.3780  -17.1040   37.5480 C   0  0  0  0  0  0  0  0  0  0  0  0
  -10.9910  -17.6090   37.8140 C   0  0  0  0  0  0  0  0  0  0  0  0
   -9.2570  -15.6070   35.4800 H   0  0  0  0  0  0  0  0  0  0  0  0
  -11.5980  -14.7550   35.0320 H   0  0  0  0  0  0  0  0  0  0  0  0
  -13.1770  -17.4870   38.0770 H   0  0  0  0  0  0  0  0  0  0  0  0
  -10.8350  -18.3400   38.5260 H   0  0  0  0  0  0  0  0  0  0  0  0
   -8.4430  -17.5580   37.3100 O   0  0  0  0  0  0  0  0  0  0  0  0
   -8.2260  -18.6760   38.2860 C   0  0  0  0  0  0  0  0  0  0  0  0
   -9.0600  -19.1140   38.7930 H   0  0  0  0  0  0  0  0  0  0  0  0
   -7.2370  -19.0370   38.4750 H   0  0  0  0  0  0  0  0  0  0  0  0
   -8.0710  -19.4750   38.9820 H   0  0  0  0  0  0  0  0  0  0  0  0
  1 29  1  0
  1  2  2  0
  2  9  1  0
  3  4  2  0
  3  2  1  0
  5  3  1  0
  6  5  1  0
  6  1  1  0
  7  6  2  0
  8  5  1  0
  9 17  1  0
  9 10  1  0
 10 19  1  0
 11 20  1  0
 11 21  1  0
 12 13  1  0
 13 22  1  0
 14 13  2  0
 14 23  1  0
 15 14  1  0
 16 17  1  0
 16 15  2  0
 17 12  2  0
 18 10  1  0
 24 15  1  0
 25 16  1  0
 26 36  1  0
 26 31  1  0
 27 26  2  0
 28 27  1  0
 28 29  2  0
 29 30  1  0
 30 31  2  0
 30 34  1  0
 31 35  1  0
 32 27  1  0
 33 28  1  0
 36 37  1  0
 37 39  1  0
 37 38  1  0
 37 40  1  0
M  END
>  <minimizedAffinity>  (273) 
-8.11846828

$$$$

     RDKit          3D

 46 49  0  0  0  0  0  0  0  0999 V2000
  -13.7830  -16.2030   36.7110 C   0  0  0  0  0  0  0  0  0  0  0  0
  -14.4260  -16.8140   37.9210 C   0  0  0  0  0  0  0  0  0  0  0  0
  -15.9120  -16.7270   38.1050 C   0  0  0  0  0  0  0  0  0  0  0  0
  -16.5540  -17.3370   39.3150 C   0  0  0  0  0  0  0  0  0  0  0  0
  -18.0400  -17.2500   39.5000 C   0  0  0  0  0  0  0  0  0  0  0  0
  -18.8840  -16.5530   38.4750 N   0  0  0  0  0  0  0  0  0  0  0  0
  -18.2410  -15.9420   37.2650 C   0  0  0  0  0  0  0  0  0  0  0  0
  -16.7550  -16.0290   37.0800 C   0  0  0  0  0  0  0  0  0  0  0  0
  -16.1130  -15.4180   35.8700 C   0  0  0  0  0  0  0  0  0  0  0  0
  -14.6270  -15.5050   35.6850 C   0  0  0  0  0  0  0  0  0  0  0  0
  -13.8450  -17.2940   38.6260 H   0  0  0  0  0  0  0  0  0  0  0  0
  -15.9740  -17.8170   40.0210 H   0  0  0  0  0  0  0  0  0  0  0  0
  -18.4820  -17.6710   40.3330 H   0  0  0  0  0  0  0  0  0  0  0  0
  -18.8220  -15.4620   36.5590 H   0  0  0  0  0  0  0  0  0  0  0  0
  -16.6930  -14.9380   35.1640 H   0  0  0  0  0  0  0  0  0  0  0  0
   -9.9680  -17.0750   37.3670 C   0  0  0  0  0  0  0  0  0  0  0  0
   -9.3250  -16.4640   36.1570 C   0  0  0  0  0  0  0  0  0  0  0  0
  -10.1690  -15.7650   35.1320 C   0  0  0  0  0  0  0  0  0  0  0  0
  -11.6550  -15.6780   35.3170 C   0  0  0  0  0  0  0  0  0  0  0  0
  -12.2970  -16.2900   36.5260 C   0  0  0  0  0  0  0  0  0  0  0  0
  -11.4540  -16.9880   37.5510 C   0  0  0  0  0  0  0  0  0  0  0  0
   -8.3030  -16.5240   36.0300 H   0  0  0  0  0  0  0  0  0  0  0  0
   -9.7270  -15.3450   34.2990 H   0  0  0  0  0  0  0  0  0  0  0  0
  -12.2350  -15.1980   34.6110 H   0  0  0  0  0  0  0  0  0  0  0  0
  -11.8960  -17.4090   38.3840 H   0  0  0  0  0  0  0  0  0  0  0  0
   -9.1240  -17.7740   38.3920 S   0  0  2  0  0  0  0  0  0  0  0  0
   -9.6310  -16.8360   39.4470 O   0  0  0  0  0  0  0  0  0  0  0  0
   -8.6170  -18.7110   37.3360 O   0  0  0  0  0  0  0  0  0  0  0  0
   -8.2810  -18.4720   39.4170 N   0  0  0  0  0  0  0  0  0  0  0  0
   -8.2930  -18.1570   40.3870 H   0  0  0  0  0  0  0  0  0  0  0  0
   -7.6960  -19.2610   39.1440 H   0  0  0  0  0  0  0  0  0  0  0  0
  -13.9850  -14.8940   34.4750 O   0  0  0  0  0  0  0  0  0  0  0  0
  -14.3660  -13.5100   34.0420 C   0  0  0  0  0  0  0  0  0  0  0  0
  -13.9800  -12.6600   34.5640 H   0  0  0  0  0  0  0  0  0  0  0  0
  -14.6380  -12.5230   33.7320 H   0  0  0  0  0  0  0  0  0  0  0  0
  -15.2900  -13.3170   32.8760 C   0  0  0  0  0  0  0  0  0  0  0  0
  -14.7300  -13.1580   31.4930 C   0  0  0  0  0  0  0  0  0  0  0  0
  -15.6540  -12.9660   30.3280 C   0  0  0  0  0  0  0  0  0  0  0  0
  -17.1370  -12.9310   30.5440 C   0  0  0  0  0  0  0  0  0  0  0  0
  -17.6980  -13.0900   31.9260 C   0  0  0  0  0  0  0  0  0  0  0  0
  -16.7740  -13.2830   33.0920 C   0  0  0  0  0  0  0  0  0  0  0  0
  -13.7090  -13.1820   31.3450 H   0  0  0  0  0  0  0  0  0  0  0  0
  -15.2680  -12.8560   29.3760 H   0  0  0  0  0  0  0  0  0  0  0  0
  -17.7730  -12.7990   29.7420 H   0  0  0  0  0  0  0  0  0  0  0  0
  -18.7190  -13.0660   32.0750 H   0  0  0  0  0  0  0  0  0  0  0  0
  -17.1590  -13.3920   34.0430 H   0  0  0  0  0  0  0  0  0  0  0  0
  1  2  1  0
  2  3  2  0
  2 11  1  0
  3  4  1  0
  4  5  2  0
  4 12  1  0
  5 13  1  0
  6  5  1  0
  7  6  2  0
  8  7  1  0
  8  3  1  0
  9  8  2  0
 10  9  1  0
 10  1  2  0
 14  7  1  0
 15  9  1  0
 16 21  1  0
 16 26  1  0
 17 16  2  0
 18 19  2  0
 18 17  1  0
 19 20  1  0
 20  1  1  0
 20 21  2  0
 21 25  1  0
 22 17  1  0
 23 18  1  0
 24 19  1  0
 26 29  1  0
 26 27  2  0
 28 26  2  0
 29 30  1  0
 31 29  1  0
 32 10  1  0
 33 32  1  0
 33 34  1  0
 35 33  1  0
 36 41  1  0
 36 33  1  0
 37 36  2  0
 38 39  2  0
 38 37  1  0
 39 40  1  0
 40 45  1  0
 40 41  2  0
 41 46  1  0
 42 37  1  0
 43 38  1  0
 44 39  1  0
M  END
>  <minimizedAffinity>  (274) 
-10.630806

$$$$

     RDKit          3D

 56 60  0  0  0  0  0  0  0  0999 V2000
  -15.2870  -15.4110   36.0820 C   0  0  0  0  0  0  0  0  0  0  0  0
  -16.6040  -15.3960   36.7990 C   0  0  0  0  0  0  0  0  0  0  0  0
  -17.6160  -14.7520   35.8990 N   0  0  0  0  0  0  0  0  0  0  0  0
  -16.9240  -14.3700   34.6240 C   0  0  0  0  0  0  0  0  0  0  0  0
  -15.4850  -14.7770   34.7360 N   0  0  0  0  0  0  0  0  0  0  0  0
   -8.8310  -17.2410   37.5740 C   0  0  0  0  0  0  0  0  0  0  0  0
   -8.8180  -16.3070   36.4000 C   0  0  0  0  0  0  0  0  0  0  0  0
  -10.1070  -15.7550   35.8670 C   0  0  0  0  0  0  0  0  0  0  0  0
  -11.4090  -16.1360   36.5070 C   0  0  0  0  0  0  0  0  0  0  0  0
  -12.6970  -15.5830   35.9740 C   0  0  0  0  0  0  0  0  0  0  0  0
  -13.9990  -15.9640   36.6150 C   0  0  0  0  0  0  0  0  0  0  0  0
  -14.0120  -16.8970   37.7890 C   0  0  0  0  0  0  0  0  0  0  0  0
  -12.7230  -17.4500   38.3230 C   0  0  0  0  0  0  0  0  0  0  0  0
  -11.4220  -17.0690   37.6820 C   0  0  0  0  0  0  0  0  0  0  0  0
  -10.1330  -17.6210   38.2150 C   0  0  0  0  0  0  0  0  0  0  0  0
   -7.9230  -16.0450   35.9590 H   0  0  0  0  0  0  0  0  0  0  0  0
  -10.0980  -15.1120   35.0590 H   0  0  0  0  0  0  0  0  0  0  0  0
  -12.6880  -14.9410   35.1660 H   0  0  0  0  0  0  0  0  0  0  0  0
  -14.9070  -17.1590   38.2300 H   0  0  0  0  0  0  0  0  0  0  0  0
  -12.7320  -18.0920   39.1310 H   0  0  0  0  0  0  0  0  0  0  0  0
  -10.1420  -18.2640   39.0230 H   0  0  0  0  0  0  0  0  0  0  0  0
   -7.5430  -17.7930   38.1070 O   0  0  0  0  0  0  0  0  0  0  0  0
   -7.4690  -19.2220   38.5590 C   0  0  0  0  0  0  0  0  0  0  0  0
   -8.3360  -19.8470   38.5010 H   0  0  0  0  0  0  0  0  0  0  0  0
   -6.5500  -19.6160   38.9390 H   0  0  0  0  0  0  0  0  0  0  0  0
   -7.4170  -20.2410   38.8810 H   0  0  0  0  0  0  0  0  0  0  0  0
  -16.8640  -15.9300   38.1770 C   0  0  0  0  0  0  0  0  0  0  0  0
  -17.5910  -17.2310   38.3520 C   0  0  0  0  0  0  0  0  0  0  0  0
  -17.8500  -17.7650   39.7290 C   0  0  0  0  0  0  0  0  0  0  0  0
  -17.3820  -17.0000   40.9310 N   0  0  0  0  0  0  0  0  0  0  0  0
  -16.6550  -15.6990   40.7560 C   0  0  0  0  0  0  0  0  0  0  0  0
  -16.3960  -15.1650   39.3790 C   0  0  0  0  0  0  0  0  0  0  0  0
  -17.9120  -17.7570   37.5250 H   0  0  0  0  0  0  0  0  0  0  0  0
  -18.3500  -18.6600   39.8490 H   0  0  0  0  0  0  0  0  0  0  0  0
  -16.3330  -15.1730   41.5840 H   0  0  0  0  0  0  0  0  0  0  0  0
  -15.8950  -14.2700   39.2590 H   0  0  0  0  0  0  0  0  0  0  0  0
  -17.5600  -13.6980   33.4430 C   0  0  0  0  0  0  0  0  0  0  0  0
  -17.0830  -12.3450   33.0030 C   0  0  0  0  0  0  0  0  0  0  0  0
  -17.7200  -11.6740   31.8220 C   0  0  0  0  0  0  0  0  0  0  0  0
  -18.8320  -12.3540   31.0810 C   0  0  0  0  0  0  0  0  0  0  0  0
  -19.3090  -13.7070   31.5210 C   0  0  0  0  0  0  0  0  0  0  0  0
  -18.6730  -14.3780   32.7020 C   0  0  0  0  0  0  0  0  0  0  0  0
  -16.3180  -11.8770   33.5130 H   0  0  0  0  0  0  0  0  0  0  0  0
  -17.3920  -10.7430   31.5190 H   0  0  0  0  0  0  0  0  0  0  0  0
  -20.0740  -14.1750   31.0120 H   0  0  0  0  0  0  0  0  0  0  0  0
  -19.0010  -15.3090   33.0050 H   0  0  0  0  0  0  0  0  0  0  0  0
  -19.4680  -11.6820   29.9010 S   0  0  0  0  0  0  0  0  0  0  0  0
  -19.7760  -10.2150   29.9500 O   0  0  0  0  0  0  0  0  0  0  0  0
  -19.7950  -12.4760   28.6720 C   0  0  0  0  0  0  0  0  0  0  0  0
  -19.5750  -13.5230   28.6360 H   0  0  0  0  0  0  0  0  0  0  0  0
  -20.2480  -11.9960   27.8300 H   0  0  0  0  0  0  0  0  0  0  0  0
  -20.0290  -13.0430   27.7940 H   0  0  0  0  0  0  0  0  0  0  0  0
  -14.4290  -14.5840   33.6890 C   0  0  0  0  0  0  0  0  0  0  0  0
  -13.4280  -14.9130   33.8720 H   0  0  0  0  0  0  0  0  0  0  0  0
  -14.6780  -14.1180   32.7590 H   0  0  0  0  0  0  0  0  0  0  0  0
  -13.6760  -14.4460   32.9410 H   0  0  0  0  0  0  0  0  0  0  0  0
  1 11  1  0
  1  2  2  0
  2 27  1  0
  3  2  1  0
  4  5  1  0
  4  3  2  0
  5  1  1  0
  6 22  1  0
  6 15  1  0
  7  6  2  0
  8  7  1  0
  8  9  2  0
  9 14  1  0
 10  9  1  0
 10 11  2  0
 11 12  1  0
 12 19  1  0
 12 13  2  0
 13 20  1  0
 14 15  2  0
 14 13  1  0
 15 21  1  0
 16  7  1  0
 17  8  1  0
 18 10  1  0
 22 23  1  0
 23 26  1  0
 23 25  1  0
 24 23  1  0
 27 28  2  0
 27 32  1  0
 28 29  1  0
 29 34  1  0
 29 30  2  0
 31 30  1  0
 31 35  1  0
 32 31  2  0
 33 28  1  0
 36 32  1  0
 37  4  1  0
 38 37  1  0
 38 43  1  0
 39 38  2  0
 40 41  2  0
 40 39  1  0
 41 42  1  0
 42 46  1  0
 42 37  2  0
 44 39  1  0
 45 41  1  0
 47 48  2  0
 47 40  1  0
 49 47  1  0
 50 49  1  0
 51 49  1  0
 52 49  1  0
 53 54  1  0
 53  5  1  0
 55 53  1  0
 56 53  1  0
M  END
>  <minimizedAffinity>  (275) 
-8.97255898

$$$$

     RDKit          3D

 33 35  0  0  0  0  0  0  0  0999 V2000
  -14.6770  -13.3760   33.1020 O   0  0  0  0  0  0  0  0  0  0  0  0
  -13.5010  -14.1970   33.5420 C   0  0  0  0  0  0  0  0  0  0  0  0
  -12.4760  -14.8220   32.6420 N   0  0  0  0  0  0  0  0  0  0  0  0
  -11.4850  -15.5470   33.5030 C   0  0  0  0  0  0  0  0  0  0  0  0
  -10.2910  -16.3140   33.0180 O   0  0  0  0  0  0  0  0  0  0  0  0
  -11.8970  -15.3710   34.9340 C   0  0  0  0  0  0  0  0  0  0  0  0
  -13.1430  -14.5370   34.9590 C   0  0  0  0  0  0  0  0  0  0  0  0
  -12.4580  -14.7650   31.6600 H   0  0  0  0  0  0  0  0  0  0  0  0
  -11.1870  -15.9310   36.1310 C   0  0  0  0  0  0  0  0  0  0  0  0
  -11.8880  -16.9080   37.0290 C   0  0  0  0  0  0  0  0  0  0  0  0
  -11.1780  -17.4680   38.2260 C   0  0  0  0  0  0  0  0  0  0  0  0
   -9.7690  -17.0510   38.5260 C   0  0  0  0  0  0  0  0  0  0  0  0
   -9.0680  -16.0750   37.6280 C   0  0  0  0  0  0  0  0  0  0  0  0
   -7.6590  -15.6580   37.9270 Cl  0  0  0  0  0  0  0  0  0  0  0  0
   -9.7780  -15.5150   36.4310 C   0  0  0  0  0  0  0  0  0  0  0  0
  -12.8570  -17.1940   36.8230 H   0  0  0  0  0  0  0  0  0  0  0  0
  -11.6600  -18.1400   38.8440 H   0  0  0  0  0  0  0  0  0  0  0  0
   -9.2800  -17.4370   39.3490 H   0  0  0  0  0  0  0  0  0  0  0  0
   -9.2960  -14.8430   35.8130 H   0  0  0  0  0  0  0  0  0  0  0  0
  -13.8980  -14.1160   36.1840 N   0  0  0  0  0  0  0  0  0  0  0  0
  -13.7270  -13.2350   36.5890 H   0  0  0  0  0  0  0  0  0  0  0  0
  -14.9150  -15.0360   36.7920 C   0  0  0  0  0  0  0  0  0  0  0  0
  -16.1540  -15.3960   36.0280 C   0  0  0  0  0  0  0  0  0  0  0  0
  -17.1700  -16.3160   36.6360 C   0  0  0  0  0  0  0  0  0  0  0  0
  -16.9460  -16.8770   38.0100 C   0  0  0  0  0  0  0  0  0  0  0  0
  -15.7070  -16.5180   38.7740 C   0  0  0  0  0  0  0  0  0  0  0  0
  -15.4830  -17.0790   40.1470 Cl  0  0  0  0  0  0  0  0  0  0  0  0
  -14.6910  -15.5980   38.1660 C   0  0  0  0  0  0  0  0  0  0  0  0
  -16.3080  -15.0100   35.0830 H   0  0  0  0  0  0  0  0  0  0  0  0
  -18.0230  -16.5640   36.1110 H   0  0  0  0  0  0  0  0  0  0  0  0
  -13.8380  -15.3500   38.6910 H   0  0  0  0  0  0  0  0  0  0  0  0
  -17.9620  -17.7980   38.6190 O   0  0  0  0  0  0  0  0  0  0  0  0
  -18.7360  -18.0220   38.1400 H   0  0  0  0  0  0  0  0  0  0  0  0
  1  2  2  0
  2  7  1  0
  3  4  1  0
  3  2  1  0
  4  6  1  0
  5  4  2  0
  6  7  2  0
  6  9  1  0
  7 20  1  0
  8  3  1  0
  9 15  2  0
  9 10  1  0
 10 11  2  0
 11 12  1  0
 11 17  1  0
 12 18  1  0
 13 14  1  0
 13 12  2  0
 15 13  1  0
 16 10  1  0
 19 15  1  0
 20 21  1  0
 20 22  1  0
 22 28  1  0
 23 24  1  0
 23 22  2  0
 24 25  2  0
 25 32  1  0
 25 26  1  0
 26 27  1  0
 28 31  1  0
 28 26  2  0
 29 23  1  0
 30 24  1  0
 33 32  1  0
M  END
>  <minimizedAffinity>  (276) 
-9.04370499

$$$$

     RDKit          3D

 51 55  0  0  0  0  0  0  0  0999 V2000
  -13.1140  -16.4510   37.7840 C   0  0  0  0  0  0  0  0  0  0  0  0
  -12.2630  -17.0540   38.8620 N   0  0  0  0  0  0  0  0  0  0  0  0
  -10.8270  -16.9240   38.4440 N   0  0  0  0  0  0  0  0  0  0  0  0
   -9.5480  -17.3400   39.1070 N   0  0  0  0  0  0  0  0  0  0  0  0
   -8.2330  -17.0740   38.4350 C   0  0  0  0  0  0  0  0  0  0  0  0
   -8.1990  -16.3910   37.1000 C   0  0  0  0  0  0  0  0  0  0  0  0
   -9.4780  -15.9750   36.4370 C   0  0  0  0  0  0  0  0  0  0  0  0
  -10.7920  -16.2420   37.1090 C   0  0  0  0  0  0  0  0  0  0  0  0
  -12.2060  -15.9490   36.7010 C   0  0  0  0  0  0  0  0  0  0  0  0
   -7.3530  -17.3600   38.8920 H   0  0  0  0  0  0  0  0  0  0  0  0
   -7.2940  -16.2070   36.6380 H   0  0  0  0  0  0  0  0  0  0  0  0
   -9.4540  -15.5050   35.5180 H   0  0  0  0  0  0  0  0  0  0  0  0
  -17.6060  -16.1920   37.7990 C   0  0  0  0  0  0  0  0  0  0  0  0
  -16.9310  -17.4990   37.5030 C   0  0  0  0  0  0  0  0  0  0  0  0
  -15.4340  -17.5850   37.4980 C   0  0  0  0  0  0  0  0  0  0  0  0
  -14.6110  -16.3640   37.7890 C   0  0  0  0  0  0  0  0  0  0  0  0
  -15.2870  -15.0580   38.0850 C   0  0  0  0  0  0  0  0  0  0  0  0
  -16.7840  -14.9720   38.0900 C   0  0  0  0  0  0  0  0  0  0  0  0
  -17.4970  -18.3380   37.3030 H   0  0  0  0  0  0  0  0  0  0  0  0
  -14.9690  -18.4840   37.2950 H   0  0  0  0  0  0  0  0  0  0  0  0
  -14.7210  -14.2180   38.2850 H   0  0  0  0  0  0  0  0  0  0  0  0
  -17.2490  -14.0730   38.2930 H   0  0  0  0  0  0  0  0  0  0  0  0
  -19.1040  -16.1060   37.8040 O   0  0  0  0  0  0  0  0  0  0  0  0
  -19.7920  -14.9660   37.1130 C   0  0  0  0  0  0  0  0  0  0  0  0
  -19.2140  -14.2140   36.6170 H   0  0  0  0  0  0  0  0  0  0  0  0
  -20.8600  -14.9050   37.1170 H   0  0  0  0  0  0  0  0  0  0  0  0
  -20.2830  -14.1530   36.6200 H   0  0  0  0  0  0  0  0  0  0  0  0
  -12.6350  -15.2730   35.4330 C   0  0  0  0  0  0  0  0  0  0  0  0
  -11.7250  -15.2640   34.2410 C   0  0  0  0  0  0  0  0  0  0  0  0
  -12.1540  -14.5890   32.9730 C   0  0  0  0  0  3  0  0  0  0  0  0
  -13.4940  -13.9210   32.8960 N   0  0  0  0  0  0  0  0  0  0  0  0
  -14.4060  -13.9290   34.0870 C   0  0  0  0  0  0  0  0  0  0  0  0
  -15.7470  -13.2610   34.0110 N   0  0  0  0  0  0  0  0  0  0  0  0
  -13.9760  -14.6050   35.3560 N   0  0  0  0  0  2  0  0  0  0  0  0
  -10.8020  -15.7240   34.2940 H   0  0  0  0  0  0  0  0  0  0  0  0
  -11.5260  -14.5830   32.1540 H   0  0  0  0  0  0  0  0  0  0  0  0
  -16.3450  -13.2660   34.7930 H   0  0  0  0  0  0  0  0  0  0  0  0
  -16.1770  -12.5850   32.7430 C   0  0  0  0  0  0  0  0  0  0  0  0
  -15.6590  -11.2170   32.4100 C   0  0  0  0  0  0  0  0  0  0  0  0
  -16.0890  -10.5410   31.1420 C   0  0  0  0  0  0  0  0  0  0  0  0
  -17.0360  -11.2320   30.2070 C   0  0  0  0  0  0  0  0  0  0  0  0
  -17.5530  -12.5990   30.5390 C   0  0  0  0  0  0  0  0  0  0  0  0
  -17.1240  -13.2760   31.8080 C   0  0  0  0  0  0  0  0  0  0  0  0
  -15.0070  -10.7410   33.0540 H   0  0  0  0  0  0  0  0  0  0  0  0
  -15.7330   -9.5990   30.9130 H   0  0  0  0  0  0  0  0  0  0  0  0
  -17.3320  -10.7670   29.3340 H   0  0  0  0  0  0  0  0  0  0  0  0
  -17.4800  -14.2170   32.0370 H   0  0  0  0  0  0  0  0  0  0  0  0
  -18.5010  -13.2920   29.6050 C   0  0  0  0  0  0  0  0  0  0  0  0
  -19.4480  -13.9840   28.6690 F   0  0  0  0  0  0  0  0  0  0  0  0
  -17.7970  -12.6720   28.4330 F   0  0  0  0  0  0  0  0  0  0  0  0
  -19.2040  -13.9120   30.7750 F   0  0  0  0  0  0  0  0  0  0  0  0
  1 16  1  0
  1  2  2  0
  3  2  1  0
  3  4  1  0
  5 10  1  0
  5  4  2  0
  6  5  1  0
  7  6  2  0
  7  8  1  0
  8  3  1  0
  9  8  2  0
  9  1  1  0
 11  6  1  0
 12  7  1  0
 13 23  1  0
 13 18  1  0
 14 13  2  0
 15 14  1  0
 15 16  2  0
 16 17  1  0
 17 18  2  0
 17 21  1  0
 18 22  1  0
 19 14  1  0
 20 15  1  0
 24 26  1  0
 24 23  1  0
 25 24  1  0
 27 24  1  0
 28  9  1  0
 29 35  1  0
 29 28  2  0
 30 29  1  0
 31 30  1  0
 31 32  2  0
 32 34  1  0
 33 32  1  0
 33 37  1  0
 34 28  1  0
 36 30  1  0
 38 33  1  0
 39 38  1  0
 39 44  1  0
 40 39  2  0
 41 42  2  0
 41 40  1  0
 42 43  1  0
 43 47  1  0
 43 38  2  0
 45 40  1  0
 46 41  1  0
 48 42  1  0
 48 51  1  0
 49 48  1  0
 50 48  1  0
M  END
>  <minimizedAffinity>  (277) 
-9.21830177

$$$$

     RDKit          3D

 50 50  0  0  1  0  0  0  0  0999 V2000
  -13.4550  -16.7400   37.8290 C   0  0  0  0  0  0  0  0  0  0  0  0
  -13.9990  -17.5450   38.9710 C   0  0  0  0  0  0  0  0  0  0  0  0
  -15.4810  -17.6240   39.1950 C   0  0  0  0  0  0  0  0  0  0  0  0
  -16.4180  -16.8970   38.2760 C   0  0  0  0  0  0  0  0  0  0  0  0
  -15.8740  -16.0920   37.1340 C   0  0  0  0  0  0  0  0  0  0  0  0
  -14.3920  -16.0130   36.9100 C   0  0  0  0  0  0  0  0  0  0  0  0
  -17.0340  -15.4870   36.3990 C   0  0  0  0  0  3  0  0  0  0  0  0
  -16.9470  -14.6050   35.1890 C   0  0  0  0  0  0  0  0  0  0  0  0
  -18.2940  -15.9190   37.0880 C   0  0  0  0  0  0  0  0  0  0  0  0
  -19.6900  -15.5450   36.6870 O   0  0  0  0  0  0  0  0  0  0  0  0
  -17.9130  -16.7910   38.2480 N   0  0  0  0  0  0  0  0  0  0  0  0
  -13.3550  -18.0460   39.6030 H   0  0  0  0  0  0  0  0  0  0  0  0
  -15.8550  -18.1790   39.9810 H   0  0  0  0  0  0  0  0  0  0  0  0
  -14.0180  -15.4580   36.1240 H   0  0  0  0  0  0  0  0  0  0  0  0
  -16.0260  -14.3650   34.7900 H   0  0  0  0  0  0  0  0  0  0  0  0
  -18.5360  -17.2180   38.8790 H   0  0  0  0  0  0  0  0  0  0  0  0
  -11.9740  -16.6610   37.6050 C   0  0  0  0  0  0  0  0  0  0  0  0
  -11.0350  -16.7130   38.7740 O   0  0  0  0  0  1  0  0  0  0  0  0
  -11.4320  -16.5300   36.2130 O   0  0  0  0  0  0  0  0  0  0  0  0
  -11.1840  -15.1700   35.6290 C   0  0  0  0  0  2  0  0  0  0  0  0
  -10.5840  -14.4610   36.1610 H   0  0  0  0  0  0  0  0  0  0  0  0
  -10.7610  -15.4310   36.5770 H   0  0  0  0  0  0  0  0  0  0  0  0
  -11.7770  -14.8050   34.3010 C   0  0  0  0  0  3  0  0  0  0  0  0
  -12.3070  -14.5810   35.2030 H   0  0  0  0  0  0  0  0  0  0  0  0
  -11.0340  -15.1180   33.0360 C   0  0  0  0  0  0  0  0  0  0  0  0
  -11.4580  -14.8570   32.0880 H   0  0  0  0  0  0  0  0  0  0  0  0
  -10.0810  -15.6030   33.0820 H   0  0  0  0  0  0  0  0  0  0  0  0
  -10.5040  -15.3420   32.1340 H   0  0  0  0  0  0  0  0  0  0  0  0
  -13.1130  -14.1260   34.2370 C   0  0  0  0  0  0  0  0  0  0  0  0
  -13.6430  -13.9020   35.1390 H   0  0  0  0  0  0  0  0  0  0  0  0
  -13.5370  -13.8650   33.2890 H   0  0  0  0  0  0  0  0  0  0  0  0
  -14.0670  -13.6420   34.1920 H   0  0  0  0  0  0  0  0  0  0  0  0
  -18.2000  -14.0710   34.5590 N   0  0  0  0  0  4  0  0  0  0  0  0
  -19.0030  -13.9230   35.1100 H   0  0  0  0  0  0  0  0  0  0  0  0
  -18.2290  -13.7640   33.0920 C   0  0  0  0  0  0  0  0  0  0  0  0
  -19.5200  -13.8530   32.3330 C   0  0  0  0  0  0  0  0  0  0  0  0
  -19.5490  -13.5460   30.8640 C   0  0  0  0  0  0  0  0  0  0  0  0
  -18.2870  -13.1500   30.1560 C   0  0  0  0  0  0  0  0  0  0  0  0
  -16.9970  -13.0620   30.9150 C   0  0  0  0  0  0  0  0  0  0  0  0
  -16.9680  -13.3690   32.3830 C   0  0  0  0  0  0  0  0  0  0  0  0
  -20.3880  -14.1250   32.8190 H   0  0  0  0  0  0  0  0  0  0  0  0
  -20.4370  -13.6070   30.3420 H   0  0  0  0  0  0  0  0  0  0  0  0
  -16.1290  -12.7900   30.4280 H   0  0  0  0  0  0  0  0  0  0  0  0
  -16.0800  -13.3080   32.9050 H   0  0  0  0  0  0  0  0  0  0  0  0
  -18.3160  -12.8430   28.6870 S   0  0  2  0  0  0  0  0  0  0  0  0
  -19.4090  -13.8530   28.4980 O   0  0  0  0  0  0  0  0  0  0  0  0
  -17.2230  -11.8340   28.8780 O   0  0  0  0  0  0  0  0  0  0  0  0
  -18.3450  -12.5360   27.2190 N   0  0  0  0  0  0  0  0  0  0  0  0
  -18.9990  -13.0270   26.6090 H   0  0  0  0  0  0  0  0  0  0  0  0
  -17.7110  -11.8380   26.8320 H   0  0  0  0  0  0  0  0  0  0  0  0
  1  2  1  0
  2  3  2  0
  2 12  1  0
  3 13  1  0
  4  3  1  0
  5  4  2  0
  6  5  1  0
  6  1  2  0
  7  8  1  0
  7  9  1  0
  7  5  1  0
  9 11  1  0
 10  9  2  0
 11  4  1  0
 11 16  1  0
 14  6  1  0
 15  8  1  0
 17  1  1  0
 17 18  1  0
 19 17  2  0
 20 21  1  0
 20 22  1  0
 23 24  1  0
 25 27  1  0
 25 23  1  0
 26 25  1  0
 28 25  1  0
 29 23  1  0
 29 30  1  0
 31 29  1  0
 32 29  1  0
 33 34  1  0
 33  8  2  0
 35 33  1  0
 36 41  1  0
 36 35  2  0
 37 36  1  0
 38 37  2  0
 38 39  1  0
 39 40  2  0
 40 44  1  0
 40 35  1  0
 42 37  1  0
 43 39  1  0
 45 47  2  0
 45 38  1  0
 46 45  2  0
 48 45  1  0
 49 48  1  0
 50 48  1  0
M  END
>  <minimizedAffinity>  (278) 
-9.16417694

$$$$

     RDKit          3D

 53 56  0  0  0  0  0  0  0  0999 V2000
  -16.9560  -14.5320   34.4150 C   0  0  0  0  0  0  0  0  0  0  0  0
  -18.2840  -14.4070   33.7300 C   0  0  0  0  0  0  0  0  0  0  0  0
  -19.5330  -14.8650   34.4240 C   0  0  0  0  0  0  0  0  0  0  0  0
  -19.4530  -15.4490   35.8030 N   0  0  0  0  0  0  0  0  0  0  0  0
  -18.1250  -15.5740   36.4890 C   0  0  0  0  0  0  0  0  0  0  0  0
  -18.0450  -16.1570   37.8680 N   0  0  0  0  0  0  0  0  0  0  0  0
  -16.8760  -15.1160   35.7950 N   0  0  0  0  0  0  0  0  0  0  0  0
  -18.3390  -14.0050   32.7800 H   0  0  0  0  0  0  0  0  0  0  0  0
  -20.4470  -14.7790   33.9520 H   0  0  0  0  0  0  0  0  0  0  0  0
  -18.8640  -16.4580   38.3230 H   0  0  0  0  0  0  0  0  0  0  0  0
  -16.7160  -16.2830   38.5540 C   0  0  0  0  0  0  0  0  0  0  0  0
  -15.7990  -17.4180   38.2090 C   0  0  0  0  0  0  0  0  0  0  0  0
  -14.4710  -17.5440   38.8950 C   0  0  0  0  0  0  0  0  0  0  0  0
  -14.0600  -16.5330   39.9250 C   0  0  0  0  0  0  0  0  0  0  0  0
  -14.9770  -15.3980   40.2690 C   0  0  0  0  0  0  0  0  0  0  0  0
  -16.3060  -15.2720   39.5830 C   0  0  0  0  0  0  0  0  0  0  0  0
  -14.5670  -14.3870   41.2980 O   0  0  0  0  0  0  0  0  0  0  0  0
  -13.2380  -14.5120   41.9840 C   0  0  0  0  0  3  0  0  0  0  0  0
  -12.3210  -15.6480   41.6400 C   0  0  0  0  0  2  0  0  0  0  0  0
  -12.7320  -16.6590   40.6100 O   0  0  0  0  0  1  0  0  0  0  0  0
  -16.0820  -18.1140   37.5010 H   0  0  0  0  0  0  0  0  0  0  0  0
  -13.8390  -18.3250   38.6580 H   0  0  0  0  0  0  0  0  0  0  0  0
  -16.9370  -14.4910   39.8200 H   0  0  0  0  0  0  0  0  0  0  0  0
  -12.9450  -13.7920   42.7190 H   0  0  0  0  0  0  0  0  0  0  0  0
  -12.2910  -14.6020   42.4730 H   0  0  0  0  0  0  0  0  0  0  0  0
  -11.3730  -15.7370   42.1290 H   0  0  0  0  0  0  0  0  0  0  0  0
  -11.6660  -16.4580   41.3940 H   0  0  0  0  0  0  0  0  0  0  0  0
  -15.6400  -13.1150   32.5700 C   0  0  0  0  0  0  0  0  0  0  0  0
  -14.1990  -12.9420   32.1940 N   0  0  0  0  0  0  0  0  0  0  0  0
  -13.3750  -13.7950   33.1130 N   0  0  0  0  0  0  0  0  0  0  0  0
  -11.8960  -14.0250   33.2120 N   0  0  0  0  0  0  0  0  0  0  0  0
  -11.3500  -14.9540   34.2550 C   0  0  0  0  0  0  0  0  0  0  0  0
  -12.2820  -15.6540   35.1990 C   0  0  0  0  0  0  0  0  0  0  0  0
  -13.7610  -15.4240   35.1000 C   0  0  0  0  0  0  0  0  0  0  0  0
  -14.3070  -14.4940   34.0570 C   0  0  0  0  0  0  0  0  0  0  0  0
  -15.7080  -14.0740   33.7210 C   0  0  0  0  0  0  0  0  0  0  0  0
  -10.3320  -15.1130   34.3240 H   0  0  0  0  0  0  0  0  0  0  0  0
  -11.9060  -16.2930   35.9170 H   0  0  0  0  0  0  0  0  0  0  0  0
  -14.4030  -15.9050   35.7500 H   0  0  0  0  0  0  0  0  0  0  0  0
  -18.4860  -12.2810   29.9330 C   0  0  0  0  0  0  0  0  0  0  0  0
  -19.1480  -11.1080   30.5920 C   0  0  0  0  0  0  0  0  0  0  0  0
  -18.6410  -10.6030   31.9100 C   0  0  0  0  0  0  0  0  0  0  0  0
  -17.4720  -11.2720   32.5690 C   0  0  0  0  0  0  0  0  0  0  0  0
  -16.8100  -12.4450   31.9110 C   0  0  0  0  0  0  0  0  0  0  0  0
  -17.3170  -12.9510   30.5920 C   0  0  0  0  0  0  0  0  0  0  0  0
  -19.9530  -10.6470   30.1380 H   0  0  0  0  0  0  0  0  0  0  0  0
  -19.0970   -9.7950   32.3630 H   0  0  0  0  0  0  0  0  0  0  0  0
  -17.1230  -10.9240   33.4760 H   0  0  0  0  0  0  0  0  0  0  0  0
  -16.8620  -13.7580   30.1390 H   0  0  0  0  0  0  0  0  0  0  0  0
  -19.5020  -13.2920   27.2960 F   0  0  0  0  0  0  0  0  0  0  0  0
  -18.9940  -12.7870   28.6150 C   0  0  0  0  0  0  0  0  0  0  0  0
  -19.4330  -14.0620   29.2720 F   0  0  0  0  0  0  0  0  0  0  0  0
  -18.5550  -11.5110   27.9570 F   0  0  0  0  0  0  0  0  0  0  0  0
  1  7  2  0
  2  1  1  0
  2  3  2  0
  3  4  1  0
  4  5  2  0
  5  6  1  0
  6 10  1  0
  6 11  1  0
  7  5  1  0
  8  2  1  0
  9  3  1  0
 11 16  1  0
 12 11  2  0
 12 13  1  0
 13 14  2  0
 14 15  1  0
 14 20  1  0
 15 17  1  0
 16 23  1  0
 16 15  2  0
 17 18  1  0
 18 25  1  0
 18 24  1  0
 19 26  1  0
 21 12  1  0
 22 13  1  0
 27 19  1  0
 28 36  1  0
 29 28  2  0
 29 30  1  0
 30 31  1  0
 30 35  1  0
 31 32  2  0
 32 37  1  0
 32 33  1  0
 33 38  1  0
 34 33  2  0
 34 39  1  0
 35 34  1  0
 36 35  2  0
 36  1  1  0
 40 45  2  0
 40 41  1  0
 41 42  2  0
 42 47  1  0
 42 43  1  0
 43 48  1  0
 44 43  2  0
 44 28  1  0
 45 44  1  0
 46 41  1  0
 49 45  1  0
 50 51  1  0
 51 52  1  0
 51 40  1  0
 53 51  1  0
M  END
>  <minimizedAffinity>  (279) 
-9.60563946

$$$$

     RDKit          3D

 50 53  0  0  0  0  0  0  0  0999 V2000
  -18.0740  -15.2820   37.7360 C   0  0  0  0  0  0  0  0  0  0  0  0
  -18.0490  -15.6820   36.2900 C   0  0  0  0  0  0  0  0  0  0  0  0
  -18.5270  -14.7250   35.2390 C   0  0  0  0  0  0  0  0  0  0  0  0
  -19.0310  -13.3680   35.6340 C   0  0  0  0  0  0  0  0  0  0  0  0
  -19.0560  -12.9680   37.0790 C   0  0  0  0  0  0  0  0  0  0  0  0
  -18.5770  -13.9260   38.1300 C   0  0  0  0  0  0  0  0  0  0  0  0
  -17.7020  -16.6150   36.0190 H   0  0  0  0  0  0  0  0  0  0  0  0
  -18.5100  -15.0000   34.2440 H   0  0  0  0  0  0  0  0  0  0  0  0
  -19.4020  -12.0350   37.3510 H   0  0  0  0  0  0  0  0  0  0  0  0
  -18.5950  -13.6510   39.1250 H   0  0  0  0  0  0  0  0  0  0  0  0
  -19.5090  -12.4110   34.5820 N   0  0  0  0  0  0  0  0  0  0  0  0
  -18.6280  -12.0760   33.4160 C   0  0  0  0  0  0  0  0  0  0  0  0
  -17.2680  -12.6990   33.3000 O   0  0  0  0  0  0  0  0  0  0  0  0
  -19.1060  -11.1190   32.3650 N   0  0  0  0  0  0  0  0  0  0  0  0
  -20.4020  -12.0020   34.6580 H   0  0  0  0  0  0  0  0  0  0  0  0
  -19.9990  -10.7100   32.4400 H   0  0  0  0  0  0  0  0  0  0  0  0
  -18.2250  -10.7840   31.1980 C   0  0  0  0  0  0  0  0  0  0  0  0
  -17.0180   -9.9160   31.3950 C   0  0  0  0  0  0  0  0  0  0  0  0
  -16.1370   -9.5810   30.2280 C   0  0  0  0  0  0  0  0  0  0  0  0
  -16.4620  -10.1150   28.8640 C   0  0  0  0  0  0  0  0  0  0  0  0
  -17.6690  -10.9830   28.6680 C   0  0  0  0  0  0  0  0  0  0  0  0
  -17.9950  -11.5170   27.3040 Cl  0  0  0  0  0  0  0  0  0  0  0  0
  -18.5510  -11.3180   29.8340 C   0  0  0  0  0  0  0  0  0  0  0  0
  -16.7940   -9.5480   32.3330 H   0  0  0  0  0  0  0  0  0  0  0  0
  -15.3060   -8.9840   30.3630 H   0  0  0  0  0  0  0  0  0  0  0  0
  -15.8560   -9.8850   28.0620 H   0  0  0  0  0  0  0  0  0  0  0  0
  -19.3810  -11.9160   29.6990 H   0  0  0  0  0  0  0  0  0  0  0  0
  -17.5950  -16.2390   38.7870 O   0  0  0  0  0  0  0  0  0  0  0  0
   -9.2690  -17.4430   37.9240 C   0  0  0  0  0  0  0  0  0  0  0  0
  -10.2300  -17.8360   36.8420 O   0  0  0  0  0  0  0  0  0  0  0  0
   -9.7780  -16.8230   39.1910 N   0  0  0  0  0  0  0  0  0  0  0  0
  -11.2490  -16.5960   39.3770 C   0  0  0  0  0  0  0  0  0  0  0  0
  -11.9010  -15.9890   40.5830 N   0  0  0  0  0  0  0  0  0  0  0  0
  -13.3820  -15.9530   40.3400 C   0  0  0  0  0  0  0  0  0  0  0  0
  -14.5250  -15.4640   41.1790 C   0  0  0  0  0  0  0  0  0  0  0  0
  -15.9290  -15.5590   40.6610 C   0  0  0  0  0  0  0  0  0  0  0  0
  -16.1910  -16.1440   39.3050 C   0  0  0  0  0  0  0  0  0  0  0  0
  -15.0470  -16.6330   38.4660 C   0  0  0  0  0  0  0  0  0  0  0  0
  -13.6430  -16.5380   38.9840 C   0  0  0  0  0  0  0  0  0  0  0  0
  -12.3240  -16.9350   38.3880 N   0  0  0  0  0  0  0  0  0  0  0  0
   -9.1460  -16.5650   39.9020 H   0  0  0  0  0  0  0  0  0  0  0  0
  -14.3450  -15.0620   42.1120 H   0  0  0  0  0  0  0  0  0  0  0  0
  -16.7160  -15.2220   41.2380 H   0  0  0  0  0  0  0  0  0  0  0  0
  -15.2270  -17.0360   37.5330 H   0  0  0  0  0  0  0  0  0  0  0  0
  -12.1890  -17.3460   37.5040 H   0  0  0  0  0  0  0  0  0  0  0  0
   -7.7970  -17.6710   37.7390 O   0  0  0  0  0  0  0  0  0  0  0  0
   -7.0870  -18.6980   38.5700 C   0  0  0  0  0  0  0  0  0  0  0  0
   -7.6290  -19.2680   39.2950 H   0  0  0  0  0  0  0  0  0  0  0  0
   -6.0370  -18.8600   38.4380 H   0  0  0  0  0  0  0  0  0  0  0  0
   -6.5800  -19.4300   39.1630 H   0  0  0  0  0  0  0  0  0  0  0  0
  1  6  1  0
  1 28  1  0
  2  1  2  0
  3  4  2  0
  3  2  1  0
  4  5  1  0
  5  9  1  0
  5  6  2  0
  6 10  1  0
  7  2  1  0
  8  3  1  0
 11 15  1  0
 11  4  1  0
 12 11  1  0
 13 12  2  0
 14 16  1  0
 14 12  1  0
 17 18  1  0
 17 14  1  0
 18 24  1  0
 19 25  1  0
 19 18  2  0
 20 19  1  0
 21 20  2  0
 21 23  1  0
 22 21  1  0
 23 17  2  0
 26 20  1  0
 27 23  1  0
 28 37  1  0
 29 31  1  0
 30 29  2  0
 31 32  1  0
 31 41  1  0
 32 33  2  0
 34 33  1  0
 34 35  1  0
 35 42  1  0
 36 35  2  0
 36 43  1  0
 37 36  1  0
 38 39  1  0
 38 37  2  0
 39 34  2  0
 40 39  1  0
 40 32  1  0
 44 38  1  0
 45 40  1  0
 46 29  1  0
 46 47  1  0
 47 50  1  0
 47 48  1  0
 49 47  1  0
M  END
>  <minimizedAffinity>  (280) 
-7.32160234

$$$$

     RDKit          3D

 51 55  0  0  1  0  0  0  0  0999 V2000
  -16.4010  -15.8510   36.1850 C   0  0  0  0  0  0  0  0  0  0  0  0
  -16.2170  -16.6600   37.4340 C   0  0  0  0  0  0  0  0  0  0  0  0
  -14.8360  -17.0060   37.9070 C   0  0  0  0  0  0  0  0  0  0  0  0
  -13.6390  -16.5410   37.1310 C   0  0  0  0  0  0  0  0  0  0  0  0
  -12.1670  -16.7260   37.3510 N   0  0  0  0  0  0  0  0  0  0  0  0
  -11.4420  -16.0310   36.2380 C   0  0  0  0  0  0  0  0  0  0  0  0
  -12.4650  -15.4160   35.3290 N   0  0  0  0  0  0  0  0  0  0  0  0
  -13.8230  -15.7320   35.8820 C   0  0  0  0  0  0  0  0  0  0  0  0
  -15.2040  -15.3860   35.4090 C   0  0  0  0  0  0  0  0  0  0  0  0
  -17.0410  -16.9800   37.9680 H   0  0  0  0  0  0  0  0  0  0  0  0
  -14.7100  -17.5630   38.7670 H   0  0  0  0  0  0  0  0  0  0  0  0
  -12.2780  -14.8970   34.5150 H   0  0  0  0  0  0  0  0  0  0  0  0
  -15.3310  -14.8290   34.5490 H   0  0  0  0  0  0  0  0  0  0  0  0
   -9.9530  -15.9620   36.0630 C   0  0  0  0  0  0  0  0  0  0  0  0
   -9.5350  -15.3940   35.2580 H   0  0  0  0  0  0  0  0  0  0  0  0
   -8.8920  -15.9130   35.9390 H   0  0  0  0  0  0  0  0  0  0  0  0
   -9.0520  -16.6900   37.0160 C   0  0  0  0  0  0  0  0  0  0  0  0
   -9.0180  -18.1890   37.0200 C   0  0  0  0  0  0  0  0  0  0  0  0
   -8.1170  -18.9170   37.9730 C   0  0  0  0  0  0  0  0  0  0  0  0
   -7.2490  -18.1440   38.9220 C   0  0  0  0  0  0  0  0  0  0  0  0
   -7.2830  -16.6450   38.9180 C   0  0  0  0  0  0  0  0  0  0  0  0
   -8.1840  -15.9170   37.9650 C   0  0  0  0  0  0  0  0  0  0  0  0
   -9.6150  -18.7200   36.3680 H   0  0  0  0  0  0  0  0  0  0  0  0
   -8.0930  -19.9480   37.9760 H   0  0  0  0  0  0  0  0  0  0  0  0
   -6.6290  -18.6450   39.5780 H   0  0  0  0  0  0  0  0  0  0  0  0
   -6.6860  -16.1140   39.5710 H   0  0  0  0  0  0  0  0  0  0  0  0
   -8.2070  -14.8850   37.9630 H   0  0  0  0  0  0  0  0  0  0  0  0
  -17.7820  -15.5050   35.7110 N   0  0  0  0  0  0  0  0  0  0  0  0
  -18.3140  -16.1710   35.2200 H   0  0  0  0  0  0  0  0  0  0  0  0
  -18.4520  -12.6180   32.3260 C   0  0  0  0  0  0  0  0  0  0  0  0
  -18.2290  -13.5810   33.4540 C   0  0  0  0  0  0  0  0  0  0  0  0
  -18.5740  -13.1830   34.8590 C   0  0  0  0  0  0  0  0  0  0  0  0
  -18.3510  -14.1450   35.9870 C   0  0  0  0  0  3  0  0  0  0  0  0
  -18.6970  -13.7480   37.3920 N   0  0  0  0  0  0  0  0  0  0  0  0
  -19.2660  -12.3870   37.6680 C   0  0  0  0  0  0  0  0  0  0  0  0
  -19.4890  -11.4250   36.5390 N   0  0  0  0  0  2  0  0  0  0  0  0
  -19.1440  -11.8230   35.1350 C   0  0  0  0  0  0  0  0  0  0  0  0
  -19.3670  -10.8600   34.0060 C   0  0  0  0  0  0  0  0  0  0  0  0
  -19.0220  -11.2580   32.6020 N   0  0  0  0  0  0  0  0  0  0  0  0
  -17.8370  -14.5170   33.2650 H   0  0  0  0  0  0  0  0  0  0  0  0
  -19.5030  -12.1140   38.6340 H   0  0  0  0  0  0  0  0  0  0  0  0
  -19.7590   -9.9240   34.1960 H   0  0  0  0  0  0  0  0  0  0  0  0
  -18.1070  -13.0160   30.9210 N   0  0  0  0  0  0  0  0  0  0  0  0
  -19.1980  -13.3230   29.9390 C   0  0  0  0  0  0  0  0  0  0  0  0
  -20.2230  -13.2590   30.2400 H   0  0  0  0  0  0  0  0  0  0  0  0
  -18.9510  -13.6070   28.9370 H   0  0  0  0  0  0  0  0  0  0  0  0
  -19.9760  -13.5430   29.2380 H   0  0  0  0  0  0  0  0  0  0  0  0
  -16.6700  -13.1060   30.4990 C   0  0  0  0  0  0  0  0  0  0  0  0
  -16.4240  -13.3900   29.4970 H   0  0  0  0  0  0  0  0  0  0  0  0
  -15.8920  -12.8860   31.2000 H   0  0  0  0  0  0  0  0  0  0  0  0
  -15.6450  -13.1700   30.1980 H   0  0  0  0  0  0  0  0  0  0  0  0
  1  2  1  0
  2  3  2  0
  2 10  1  0
  3 11  1  0
  4  5  1  0
  4  3  1  0
  6  5  2  0
  7  8  1  0
  7  6  1  0
  8  4  2  0
  9  8  1  0
  9  1  2  0
 12  7  1  0
 13  9  1  0
 14  6  1  0
 14 17  1  0
 15 14  1  0
 16 14  1  0
 17 18  2  0
 17 22  1  0
 18 19  1  0
 19 24  1  0
 19 20  2  0
 20 25  1  0
 21 20  1  0
 21 26  1  0
 22 21  2  0
 23 18  1  0
 27 22  1  0
 28  1  1  0
 29 28  1  0
 30 39  2  0
 30 31  1  0
 31 32  2  0
 32 37  1  0
 32 33  1  0
 33 28  1  0
 33 34  1  0
 34 35  2  0
 35 41  1  0
 36 35  1  0
 37 36  1  0
 38 42  1  0
 38 37  2  0
 39 38  1  0
 40 31  1  0
 43 30  1  0
 44 45  1  0
 44 43  1  0
 46 44  1  0
 47 44  1  0
 48 43  1  0
 48 50  1  0
 49 48  1  0
 51 48  1  0
M  END
>  <minimizedAffinity>  (281) 
-9.5460062

$$$$

     RDKit          3D

 57 55  0  0  1  0  0  0  0  0999 V2000
  -17.4020  -14.5180   34.8590 C   0  0  0  0  0  0  0  0  0  0  0  0
  -17.5440  -15.2550   36.1570 C   0  0  0  0  0  0  0  0  0  0  0  0
  -19.0060  -15.3650   36.4710 N   0  0  0  0  0  0  0  0  0  0  0  0
  -19.7680  -14.6960   35.3660 C   0  0  0  0  0  0  0  0  0  0  0  0
  -18.7770  -14.1720   34.3700 N   0  0  0  0  0  0  0  0  0  0  0  0
  -20.7950  -14.6110   35.3020 H   0  0  0  0  0  0  0  0  0  0  0  0
  -19.1030  -13.4330   33.1060 C   0  0  0  0  0  2  0  0  0  0  0  0
  -19.0630  -14.1460   31.7870 C   0  0  0  0  0  2  0  0  0  0  0  0
  -19.3890  -13.4060   30.5230 C   0  0  0  0  0  2  0  0  0  0  0  0
  -19.7550  -11.9530   30.5790 N   0  0  0  0  0  1  0  0  0  0  0  0
  -19.7950  -11.2400   31.8980 C   0  0  0  0  0  2  0  0  0  0  0  0
  -19.4690  -11.9790   33.1620 C   0  0  0  0  0  2  0  0  0  0  0  0
  -19.3360  -12.9040   32.2050 H   0  0  0  0  0  0  0  0  0  0  0  0
  -18.8020  -15.1830   31.7480 H   0  0  0  0  0  0  0  0  0  0  0  0
  -19.0340  -14.6550   30.8460 H   0  0  0  0  0  0  0  0  0  0  0  0
  -19.3600  -13.9150   29.5830 H   0  0  0  0  0  0  0  0  0  0  0  0
  -19.6210  -12.8780   29.6230 H   0  0  0  0  0  0  0  0  0  0  0  0
  -19.9760  -11.4500   29.7210 H   0  0  0  0  0  0  0  0  0  0  0  0
  -20.0560  -10.2020   31.9370 H   0  0  0  0  0  0  0  0  0  0  0  0
  -19.8240  -10.7300   32.8390 H   0  0  0  0  0  0  0  0  0  0  0  0
  -19.4980  -11.4710   34.1020 H   0  0  0  0  0  0  0  0  0  0  0  0
  -19.2370  -12.5070   34.0630 H   0  0  0  0  0  0  0  0  0  0  0  0
  -16.4190  -15.7880   36.9950 C   0  0  0  0  0  0  0  0  0  0  0  0
  -16.0840  -17.2500   36.9570 C   0  0  0  0  0  0  0  0  0  0  0  0
  -14.9600  -17.7830   37.7950 C   0  0  0  0  0  0  0  0  0  0  0  0
  -14.1710  -16.8560   38.6710 C   0  0  0  0  0  0  0  0  0  0  0  0
  -13.0470  -17.3900   39.5090 F   0  0  0  0  0  0  0  0  0  0  0  0
  -14.5070  -15.3940   38.7090 C   0  0  0  0  0  0  0  0  0  0  0  0
  -15.6310  -14.8610   37.8710 C   0  0  0  0  0  0  0  0  0  0  0  0
  -16.6260  -17.8880   36.3550 H   0  0  0  0  0  0  0  0  0  0  0  0
  -14.7290  -18.7890   37.7680 H   0  0  0  0  0  0  0  0  0  0  0  0
  -13.9640  -14.7560   39.3120 H   0  0  0  0  0  0  0  0  0  0  0  0
  -15.8620  -13.8550   37.8980 H   0  0  0  0  0  0  0  0  0  0  0  0
  -13.7180  -14.8660   33.4240 C   0  0  0  0  0  0  0  0  0  0  0  0
  -13.5310  -13.5180   32.7930 N   0  0  0  0  0  0  0  0  0  0  0  0
  -14.6340  -12.5030   32.8520 C   0  0  0  0  0  0  0  0  0  0  0  0
  -15.9240  -12.8360   33.5400 C   0  0  0  0  0  0  0  0  0  0  0  0
  -16.1110  -14.1840   34.1700 C   0  0  0  0  0  3  0  0  0  0  0  0
  -15.0080  -15.1990   34.1120 N   0  0  0  0  0  0  0  0  0  0  0  0
  -14.5050  -11.5750   32.4180 H   0  0  0  0  0  0  0  0  0  0  0  0
  -16.6830  -12.1380   33.5800 H   0  0  0  0  0  0  0  0  0  0  0  0
  -12.6150  -15.8810   33.3650 O   0  0  0  0  0  0  0  0  0  0  0  0
   -9.6960  -16.2310   36.7720 C   0  0  0  0  0  0  0  0  0  0  0  0
   -9.2270  -16.4180   35.3600 C   0  0  0  0  0  0  0  0  0  0  0  0
  -10.2000  -16.3010   34.2240 C   0  0  0  0  0  0  0  0  0  0  0  0
  -11.6420  -15.9980   34.5010 C   0  0  0  0  0  0  0  0  0  0  0  0
  -12.1120  -15.8100   35.9130 C   0  0  0  0  0  0  0  0  0  0  0  0
  -11.1390  -15.9270   37.0490 C   0  0  0  0  0  0  0  0  0  0  0  0
   -8.2340  -16.6270   35.1700 H   0  0  0  0  0  0  0  0  0  0  0  0
   -9.8760  -16.4300   33.2530 H   0  0  0  0  0  0  0  0  0  0  0  0
  -13.1050  -15.6010   36.1030 H   0  0  0  0  0  0  0  0  0  0  0  0
  -11.4620  -15.7980   38.0210 H   0  0  0  0  0  0  0  0  0  0  0  0
   -7.4520  -15.5520   37.8910 N   0  0  0  0  0  0  0  0  0  0  0  0
   -8.7240  -16.3470   37.9080 C   0  0  0  0  0  0  0  0  0  0  0  0
   -9.0220  -17.2590   39.0610 O   0  0  0  0  0  0  0  0  0  0  0  0
   -7.2550  -14.9530   37.1340 H   0  0  0  0  0  0  0  0  0  0  0  0
   -6.8140  -15.6280   38.6360 H   0  0  0  0  0  0  0  0  0  0  0  0
  1  2  2  0
  2  3  1  0
  2 23  1  0
  4  3  2  0
  5  1  1  0
  5  4  1  0
  6  4  1  0
  7  5  1  0
 11 19  1  0
 11 20  1  0
 12 22  1  0
 12 21  1  0
 13  7  1  0
 14  8  1  0
 15  8  1  0
 16  9  1  0
 17  9  1  0
 18 10  1  0
 23 29  1  0
 24 23  2  0
 24 25  1  0
 25 26  2  0
 26 28  1  0
 26 27  1  0
 28 32  1  0
 29 33  1  0
 29 28  2  0
 30 24  1  0
 31 25  1  0
 34 39  2  0
 35 36  1  0
 35 34  2  0
 36 37  2  0
 37 41  1  0
 37 38  1  0
 38  1  1  0
 39 38  1  0
 40 36  1  0
 42 34  1  0
 42 46  1  0
 43 48  1  0
 43 54  1  0
 44 43  2  0
 45 46  2  0
 45 44  1  0
 46 47  1  0
 47 51  1  0
 47 48  2  0
 48 52  1  0
 49 44  1  0
 50 45  1  0
 53 54  1  0
 53 57  1  0
 54 55  2  0
 56 53  1  0
M  END
>  <minimizedAffinity>  (282) 
-8.51864815

$$$$

     RDKit          3D

 32 31  0  0  0  0  0  0  0  0999 V2000
   -8.4630  -16.0690   36.3580 O   0  0  0  0  0  1  0  0  0  0  0  0
   -9.1030  -17.0300   37.3160 C   0  0  0  0  0  2  0  0  0  0  0  0
  -10.5980  -17.1060   37.4150 N   0  0  0  0  0  0  0  0  0  0  0  0
  -11.4520  -16.2220   36.5570 C   0  0  0  0  0  0  0  0  0  0  0  0
  -10.9580  -15.2170   35.5590 N   0  0  0  0  0  0  0  0  0  0  0  0
  -12.1520  -14.5600   34.9310 N   0  0  0  0  0  0  0  0  0  0  0  0
  -13.3840  -15.1590   35.5410 C   0  0  0  0  0  0  0  0  0  0  0  0
  -14.8440  -14.9030   35.3120 N   0  0  0  0  0  0  0  0  0  0  0  0
  -15.8720  -15.6720   36.0870 C   0  0  0  0  0  0  0  0  0  0  0  0
  -15.4400  -16.6990   37.0920 C   0  0  0  0  0  0  0  0  0  0  0  0
  -13.9800  -16.9560   37.3210 C   0  0  0  0  0  0  0  0  0  0  0  0
  -12.9520  -16.1860   36.5460 C   0  0  0  0  0  0  0  0  0  0  0  0
  -11.0180  -17.7370   38.0440 H   0  0  0  0  0  0  0  0  0  0  0  0
  -12.1300  -13.8590   34.2400 H   0  0  0  0  0  0  0  0  0  0  0  0
  -16.1470  -17.2280   37.6250 H   0  0  0  0  0  0  0  0  0  0  0  0
  -13.6830  -17.6620   38.0130 H   0  0  0  0  0  0  0  0  0  0  0  0
  -17.3320  -15.4160   35.8580 C   0  0  0  0  0  0  0  0  0  0  0  0
  -18.3330  -15.0250   36.9040 C   0  0  0  0  0  0  0  0  0  0  0  0
  -19.6670  -14.8720   36.2340 C   0  0  0  0  0  0  0  0  0  0  0  0
  -19.4900  -15.1680   34.7750 C   0  0  0  0  0  0  0  0  0  0  0  0
  -18.0470  -15.5040   34.5420 O   0  0  0  0  0  0  0  0  0  0  0  0
  -18.1390  -14.8860   37.9080 H   0  0  0  0  0  0  0  0  0  0  0  0
  -20.5510  -14.6100   36.6970 H   0  0  0  0  0  0  0  0  0  0  0  0
  -20.2310  -15.1450   34.0570 H   0  0  0  0  0  0  0  0  0  0  0  0
   -8.2480  -17.9150   38.1740 C   0  0  0  0  0 15  0  0  0  0  0  0
   -7.8660  -19.2840   38.6510 C   0  0  0  0  0  3  0  0  0  0  0  0
   -7.1500  -18.0770   39.1820 C   0  0  0  0  0  2  0  0  0  0  0  0
   -7.6380  -18.5460   38.7860 H   0  0  0  0  0  0  0  0  0  0  0  0
   -8.0020  -20.3450   38.6300 H   0  0  0  0  0  0  0  0  0  0  0  0
   -7.1440  -19.6710   39.3410 H   0  0  0  0  0  0  0  0  0  0  0  0
   -6.4030  -17.6470   39.8160 H   0  0  0  0  0  0  0  0  0  0  0  0
   -7.2200  -17.0220   39.0170 H   0  0  0  0  0  0  0  0  0  0  0  0
  1  2  1  0
  2  3  1  0
  3 13  1  0
  4  3  1  0
  5  4  2  0
  6  7  1  0
  6  5  1  0
  7 12  1  0
  8  7  2  0
  8  9  1  0
  9 10  2  0
 10 11  1  0
 10 15  1  0
 11 16  1  0
 12  4  1  0
 12 11  2  0
 14  6  1  0
 17  9  1  0
 17 18  2  0
 18 22  1  0
 19 23  1  0
 19 18  1  0
 20 19  2  0
 21 20  1  0
 21 17  1  0
 24 20  1  0
 26 28  1  0
 26 30  1  0
 27 31  1  0
 29 26  1  0
 32 27  1  0
M  END
>  <minimizedAffinity>  (283) 
-8.82867146

$$$$

     RDKit          3D

 41 40  0  0  0  0  0  0  0  0999 V2000
  -12.8120  -14.8260   34.6110 C   0  0  0  0  0  0  0  0  0  0  0  0
  -12.2680  -14.3110   33.3120 C   0  0  0  0  0  0  0  0  0  0  0  0
  -13.1680  -13.5830   32.3580 C   0  0  0  0  0  0  0  0  0  0  0  0
  -14.6120  -13.3720   32.7020 C   0  0  0  0  0  0  0  0  0  0  0  0
  -15.7320  -12.6960   31.9660 C   0  0  0  0  0  0  0  0  0  0  0  0
  -15.6320  -12.0390   30.6210 N   0  0  0  0  0  0  0  0  0  0  0  0
  -16.8430  -11.4010   30.0070 C   0  0  0  0  0  2  0  0  0  0  0  0
  -18.1520  -11.4220   30.7370 O   0  0  0  0  0  1  0  0  0  0  0  0
  -16.9670  -12.7950   32.8100 N   0  0  0  0  0  0  0  0  0  0  0  0
  -16.6120  -13.5300   34.0680 N   0  0  0  0  0  0  0  0  0  0  0  0
  -15.1570  -13.8870   34.0010 C   0  0  0  0  0  0  0  0  0  0  0  0
  -14.2570  -14.6140   34.9560 C   0  0  0  0  0  0  0  0  0  0  0  0
  -11.2740  -14.4560   33.0750 H   0  0  0  0  0  0  0  0  0  0  0  0
  -12.7930  -13.2290   31.4640 H   0  0  0  0  0  0  0  0  0  0  0  0
  -14.7710  -12.0260   30.1430 H   0  0  0  0  0  0  0  0  0  0  0  0
  -17.2270  -13.7420   34.8080 H   0  0  0  0  0  0  0  0  0  0  0  0
  -14.6320  -14.9690   35.8500 H   0  0  0  0  0  0  0  0  0  0  0  0
  -10.1130  -17.0080   37.4750 C   0  0  0  0  0  0  0  0  0  0  0  0
   -9.5270  -16.2620   36.3130 C   0  0  0  0  0  0  0  0  0  0  0  0
  -10.4270  -15.5350   35.3580 C   0  0  0  0  0  0  0  0  0  0  0  0
  -11.9130  -15.5530   35.5660 C   0  0  0  0  0  0  0  0  0  0  0  0
  -12.4980  -16.2990   36.7280 C   0  0  0  0  0  0  0  0  0  0  0  0
  -11.5980  -17.0260   37.6830 C   0  0  0  0  0  0  0  0  0  0  0  0
   -8.5050  -16.2500   36.1700 H   0  0  0  0  0  0  0  0  0  0  0  0
  -10.0240  -15.0220   34.5590 H   0  0  0  0  0  0  0  0  0  0  0  0
  -13.5200  -16.3120   36.8710 H   0  0  0  0  0  0  0  0  0  0  0  0
  -12.0010  -17.5390   38.4830 H   0  0  0  0  0  0  0  0  0  0  0  0
   -9.2130  -17.7350   38.4300 S   0  0  2  0  0  0  0  0  0  0  0  0
   -9.5980  -16.7800   39.5200 O   0  0  0  0  0  0  0  0  0  0  0  0
   -8.8280  -18.6900   37.3390 O   0  0  0  0  0  0  0  0  0  0  0  0
   -8.3130  -18.4630   39.3840 N   0  0  0  0  0  0  0  0  0  0  0  0
   -8.2340  -18.1470   40.3520 H   0  0  0  0  0  0  0  0  0  0  0  0
   -7.7810  -19.2720   39.0670 H   0  0  0  0  0  0  0  0  0  0  0  0
  -16.7430  -10.7430   28.6620 C   0  0  0  0  0 15  0  0  0  0  0  0
  -17.2130  -10.6070   27.2440 C   0  0  0  0  0  2  0  0  0  0  0  0
  -16.0990   -9.7400   27.7510 C   0  0  0  0  0  3  0  0  0  0  0  0
  -16.6710  -10.2740   27.7030 H   0  0  0  0  0  0  0  0  0  0  0  0
  -17.8660  -10.9080   26.4530 H   0  0  0  0  0  0  0  0  0  0  0  0
  -16.9390   -9.9940   26.4120 H   0  0  0  0  0  0  0  0  0  0  0  0
  -15.3750   -8.9700   27.5850 H   0  0  0  0  0  0  0  0  0  0  0  0
  -15.5870   -9.6340   28.6860 H   0  0  0  0  0  0  0  0  0  0  0  0
  1 12  1  0
  1 21  1  0
  2  1  2  0
  3  4  2  0
  3  2  1  0
  4 11  1  0
  5  4  1  0
  5  9  2  0
  6  5  1  0
  7  6  1  0
  7  8  1  0
  9 10  1  0
 10 16  1  0
 11 10  1  0
 11 12  2  0
 12 17  1  0
 13  2  1  0
 14  3  1  0
 15  6  1  0
 18 23  1  0
 18 28  1  0
 19 18  2  0
 20 21  2  0
 20 19  1  0
 21 22  1  0
 22 26  1  0
 22 23  2  0
 23 27  1  0
 24 19  1  0
 25 20  1  0
 28 31  1  0
 28 29  2  0
 30 28  2  0
 31 32  1  0
 33 31  1  0
 36 41  1  0
 37 36  1  0
 38 35  1  0
 39 35  1  0
 40 36  1  0
M  END
>  <minimizedAffinity>  (284) 
-10.0442667

$$$$

     RDKit          3D

 44 46  0  0  0  0  0  0  0  0999 V2000
  -14.9430  -17.1300   38.1480 C   0  0  0  0  0  0  0  0  0  0  0  0
  -15.1010  -16.4140   36.8400 C   0  0  0  0  0  0  0  0  0  0  0  0
  -16.5370  -16.0050   36.7040 C   0  0  0  0  0  0  0  0  0  0  0  0
  -17.2680  -16.4680   37.9300 S   0  0  0  0  0  0  0  0  0  0  0  0
  -16.2830  -17.1630   38.8220 C   0  0  0  0  0  0  0  0  0  0  0  0
  -14.3520  -16.2350   36.1530 H   0  0  0  0  0  0  0  0  0  0  0  0
  -17.1380  -15.2630   35.5480 N   0  0  0  0  0  0  0  0  0  0  0  0
  -18.5980  -15.1790   35.2160 C   0  0  0  0  0  0  0  0  0  0  0  0
  -18.7470  -14.3390   33.9820 N   0  0  0  0  0  0  0  0  0  0  0  0
  -17.3770  -13.9030   33.5510 C   0  0  0  0  0  0  0  0  0  0  0  0
  -16.9070  -13.0600   32.4030 C   0  0  0  0  0  0  0  0  0  0  0  0
  -15.4430  -12.7880   32.2220 C   0  0  0  0  0  0  0  0  0  0  0  0
  -14.4490  -13.3590   33.1890 C   0  0  0  0  0  0  0  0  0  0  0  0
  -14.9190  -14.2020   34.3370 C   0  0  0  0  0  0  0  0  0  0  0  0
  -16.3830  -14.4740   34.5190 C   0  0  0  0  0  0  0  0  0  0  0  0
  -19.3660  -15.6220   35.7440 H   0  0  0  0  0  0  0  0  0  0  0  0
  -17.5910  -12.6670   31.7380 H   0  0  0  0  0  0  0  0  0  0  0  0
  -15.1200  -12.2080   31.4320 H   0  0  0  0  0  0  0  0  0  0  0  0
  -13.4420  -13.1720   33.0650 H   0  0  0  0  0  0  0  0  0  0  0  0
  -14.2350  -14.5950   35.0030 H   0  0  0  0  0  0  0  0  0  0  0  0
  -16.5850  -17.7830   40.1540 C   0  0  0  0  0  0  0  0  0  0  0  0
  -15.7510  -18.9240   40.6570 N   0  0  0  0  0  0  0  0  0  0  0  0
  -17.7200  -17.2610   40.9840 O   0  0  0  0  0  0  0  0  0  0  0  0
  -15.9500  -19.3310   41.5310 H   0  0  0  0  0  0  0  0  0  0  0  0
  -15.0060  -19.2670   40.1130 H   0  0  0  0  0  0  0  0  0  0  0  0
  -13.6700  -17.7110   38.6890 O   0  0  0  0  0  1  0  0  0  0  0  0
  -12.4720  -16.8310   38.8920 C   0  0  0  0  0  3  0  0  0  0  0  0
  -12.3850  -16.2430   39.7830 H   0  0  0  0  0  0  0  0  0  0  0  0
  -13.2390  -16.8710   39.6370 H   0  0  0  0  0  0  0  0  0  0  0  0
   -9.0490  -17.4900   36.9940 C   0  0  0  0  0  0  0  0  0  0  0  0
   -9.2470  -16.6620   35.7590 C   0  0  0  0  0  0  0  0  0  0  0  0
  -10.5190  -15.8910   35.5680 C   0  0  0  0  0  0  0  0  0  0  0  0
  -11.5940  -15.9480   36.6130 C   0  0  0  0  0  0  0  0  0  0  0  0
  -11.3970  -16.7750   37.8480 C   0  0  0  0  0  0  0  0  0  0  0  0
  -10.1240  -17.5460   38.0390 C   0  0  0  0  0  0  0  0  0  0  0  0
   -8.5070  -16.6240   35.0400 H   0  0  0  0  0  0  0  0  0  0  0  0
  -10.6550  -15.3220   34.7180 H   0  0  0  0  0  0  0  0  0  0  0  0
  -12.4700  -15.4170   36.4810 H   0  0  0  0  0  0  0  0  0  0  0  0
   -9.9890  -18.1150   38.8890 H   0  0  0  0  0  0  0  0  0  0  0  0
   -7.7770  -18.2610   37.1860 O   0  0  0  0  0  0  0  0  0  0  0  0
   -7.3840  -18.7300   38.5560 C   0  0  0  0  0  0  0  0  0  0  0  0
   -8.0110  -18.5130   39.3950 H   0  0  0  0  0  0  0  0  0  0  0  0
   -6.4770  -19.2800   38.6930 H   0  0  0  0  0  0  0  0  0  0  0  0
   -7.1030  -19.0640   39.5320 H   0  0  0  0  0  0  0  0  0  0  0  0
  1 26  1  0
  1  5  2  0
  2  1  1  0
  3  2  2  0
  3  4  1  0
  4  5  1  0
  5 21  1  0
  6  2  1  0
  7  3  1  0
  8  7  1  0
  8 16  1  0
  9  8  2  0
 10  9  1  0
 10 15  1  0
 11 10  2  0
 12 11  1  0
 12 13  2  0
 13 14  1  0
 14 15  2  0
 14 20  1  0
 15  7  1  0
 17 11  1  0
 18 12  1  0
 19 13  1  0
 21 22  1  0
 21 23  2  0
 22 24  1  0
 25 22  1  0
 27 29  1  0
 27 28  1  0
 30 40  1  0
 30 35  1  0
 31 30  2  0
 32 31  1  0
 32 33  2  0
 33 34  1  0
 34 35  2  0
 34 27  1  0
 35 39  1  0
 36 31  1  0
 37 32  1  0
 38 33  1  0
 40 41  1  0
 41 43  1  0
 41 42  1  0
 41 44  1  0
M  END
>  <minimizedAffinity>  (285) 
-10.1470089

$$$$

     RDKit          3D

 50 53  0  0  0  0  0  0  0  0999 V2000
  -18.6290  -15.1490   36.3060 C   0  0  0  0  0  0  0  0  0  0  0  0
  -18.9340  -15.5810   34.9020 C   0  0  0  0  0  0  0  0  0  0  0  0
  -19.3140  -14.5610   33.8690 C   0  0  0  0  0  0  0  0  0  0  0  0
  -19.3900  -13.1100   34.2410 C   0  0  0  0  0  0  0  0  0  0  0  0
  -19.0850  -12.6780   35.6450 C   0  0  0  0  0  0  0  0  0  0  0  0
  -18.7050  -13.6980   36.6770 C   0  0  0  0  0  0  0  0  0  0  0  0
  -18.8820  -16.5790   34.6460 H   0  0  0  0  0  0  0  0  0  0  0  0
  -19.5240  -14.8580   32.9030 H   0  0  0  0  0  0  0  0  0  0  0  0
  -19.1370  -11.6790   35.9000 H   0  0  0  0  0  0  0  0  0  0  0  0
  -18.4950  -13.4000   37.6430 H   0  0  0  0  0  0  0  0  0  0  0  0
  -19.7700  -12.0900   33.2080 N   0  0  0  0  0  0  0  0  0  0  0  0
  -18.8930  -11.8720   32.0110 C   0  0  0  0  0  0  0  0  0  0  0  0
  -17.6360  -12.6730   31.8460 O   0  0  0  0  0  0  0  0  0  0  0  0
  -19.2740  -10.8520   30.9790 N   0  0  0  0  0  0  0  0  0  0  0  0
  -20.5960  -11.5640   33.3170 H   0  0  0  0  0  0  0  0  0  0  0  0
  -20.0990  -10.3270   31.0870 H   0  0  0  0  0  0  0  0  0  0  0  0
  -18.3970  -10.6340   29.7820 C   0  0  0  0  0  0  0  0  0  0  0  0
  -18.7610  -11.2500   28.4630 C   0  0  0  0  0  0  0  0  0  0  0  0
  -17.8840  -11.0320   27.2660 C   0  0  0  0  0  0  0  0  0  0  0  0
  -16.6430  -10.1970   27.3870 C   0  0  0  0  0  0  0  0  0  0  0  0
  -16.2800   -9.5810   28.7050 C   0  0  0  0  0  0  0  0  0  0  0  0
  -17.1570   -9.7990   29.9030 C   0  0  0  0  0  0  0  0  0  0  0  0
  -19.6140  -11.8240   28.3800 H   0  0  0  0  0  0  0  0  0  0  0  0
  -18.1340  -11.4560   26.3590 H   0  0  0  0  0  0  0  0  0  0  0  0
  -16.0400  -10.0470   26.5630 H   0  0  0  0  0  0  0  0  0  0  0  0
  -15.4260   -9.0070   28.7890 H   0  0  0  0  0  0  0  0  0  0  0  0
  -16.9060   -9.3750   30.8100 H   0  0  0  0  0  0  0  0  0  0  0  0
  -18.2480  -16.1680   37.3380 O   0  0  0  0  0  0  0  0  0  0  0  0
   -9.3760  -16.5830   37.9900 C   0  0  0  0  0  0  0  0  0  0  0  0
   -9.8030  -17.0550   39.3490 O   0  0  0  0  0  0  0  0  0  0  0  0
  -10.4070  -16.2010   36.9710 N   0  0  0  0  0  0  0  0  0  0  0  0
  -11.8660  -16.2910   37.3090 C   0  0  0  0  0  0  0  0  0  0  0  0
  -13.0050  -15.9450   36.3970 N   0  0  0  0  0  0  0  0  0  0  0  0
  -14.2850  -16.1820   37.1440 C   0  0  0  0  0  0  0  0  0  0  0  0
  -15.7220  -16.0130   36.7510 C   0  0  0  0  0  0  0  0  0  0  0  0
  -16.8110  -16.3370   37.7310 C   0  0  0  0  0  0  0  0  0  0  0  0
  -16.4620  -16.8300   39.1040 C   0  0  0  0  0  0  0  0  0  0  0  0
  -15.0240  -16.9990   39.4970 C   0  0  0  0  0  0  0  0  0  0  0  0
  -13.9350  -16.6750   38.5170 C   0  0  0  0  0  0  0  0  0  0  0  0
  -12.4400  -16.7420   38.6200 N   0  0  0  0  0  0  0  0  0  0  0  0
  -10.1270  -15.8920   36.0790 H   0  0  0  0  0  0  0  0  0  0  0  0
  -15.9630  -15.6740   35.8060 H   0  0  0  0  0  0  0  0  0  0  0  0
  -17.2110  -17.0530   39.7780 H   0  0  0  0  0  0  0  0  0  0  0  0
  -14.7840  -17.3380   40.4420 H   0  0  0  0  0  0  0  0  0  0  0  0
  -11.9260  -17.0320   39.4080 H   0  0  0  0  0  0  0  0  0  0  0  0
   -7.9170  -16.4940   37.6520 O   0  0  0  0  0  0  0  0  0  0  0  0
   -7.1770  -15.2060   37.8600 C   0  0  0  0  0  0  0  0  0  0  0  0
   -7.6890  -14.3510   38.2500 H   0  0  0  0  0  0  0  0  0  0  0  0
   -6.1360  -15.1420   37.6180 H   0  0  0  0  0  0  0  0  0  0  0  0
   -6.6480  -14.2870   38.0080 H   0  0  0  0  0  0  0  0  0  0  0  0
  1  6  1  0
  1 28  1  0
  2  1  2  0
  3  4  2  0
  3  2  1  0
  4  5  1  0
  5  9  1  0
  5  6  2  0
  6 10  1  0
  7  2  1  0
  8  3  1  0
 11 15  1  0
 11  4  1  0
 12 11  1  0
 13 12  2  0
 14 16  1  0
 14 12  1  0
 17 22  1  0
 17 14  1  0
 18 17  2  0
 19 20  2  0
 19 18  1  0
 20 21  1  0
 21 26  1  0
 21 22  2  0
 22 27  1  0
 23 18  1  0
 24 19  1  0
 25 20  1  0
 28 36  1  0
 29 30  2  0
 31 32  1  0
 31 29  1  0
 32 40  1  0
 33 34  1  0
 33 32  2  0
 34 39  1  0
 35 34  2  0
 35 36  1  0
 36 37  2  0
 37 38  1  0
 37 43  1  0
 38 44  1  0
 39 40  1  0
 39 38  2  0
 40 45  1  0
 41 31  1  0
 42 35  1  0
 46 47  1  0
 46 29  1  0
 47 50  1  0
 47 48  1  0
 49 47  1  0
M  END
>  <minimizedAffinity>  (286) 
-6.98327732

$$$$

     RDKit          3D

 66 62  0  0  0  0  0  0  0  0999 V2000
  -14.6220  -15.8560   40.5370 C   0  0  0  0  0  0  0  0  0  0  0  0
  -15.3620  -16.3650   41.7380 C   0  0  0  0  0  0  0  0  0  0  0  0
  -16.8400  -16.6090   41.6620 C   0  0  0  0  0  0  0  0  0  0  0  0
  -17.5780  -16.3430   40.3830 C   0  0  0  0  0  0  0  0  0  0  0  0
  -19.0560  -16.5870   40.3070 N   0  0  0  0  0  0  0  0  0  0  0  0
  -19.7950  -16.3220   39.0280 C   0  0  0  0  0  0  0  0  0  0  0  0
  -19.0550  -15.8130   37.8260 N   0  0  0  0  0  0  0  0  0  0  0  0
  -17.5770  -15.5690   37.9030 C   0  0  0  0  0  0  0  0  0  0  0  0
  -16.8370  -15.0610   36.7020 N   0  0  0  0  0  0  0  0  0  0  0  0
  -16.8390  -15.8350   39.1820 C   0  0  0  0  0  0  0  0  0  0  0  0
  -15.3610  -15.5910   39.2580 C   0  0  0  0  0  0  0  0  0  0  0  0
  -14.8540  -16.5470   42.6180 H   0  0  0  0  0  0  0  0  0  0  0  0
  -17.3490  -16.9590   42.4890 H   0  0  0  0  0  0  0  0  0  0  0  0
  -20.8120  -16.4890   38.9750 H   0  0  0  0  0  0  0  0  0  0  0  0
  -15.8670  -14.9010   36.7510 H   0  0  0  0  0  0  0  0  0  0  0  0
  -14.8510  -15.2410   38.4310 H   0  0  0  0  0  0  0  0  0  0  0  0
  -17.5760  -14.7950   35.4230 C   0  0  0  0  0  0  0  0  0  0  0  0
  -19.0040  -15.2300   35.2780 C   0  0  0  0  0  0  0  0  0  0  0  0
  -19.7420  -14.9650   33.9990 C   0  0  0  0  0  0  0  0  0  0  0  0
  -19.0530  -14.2650   32.8660 C   0  0  0  0  0  0  0  0  0  0  0  0
  -17.6250  -13.8300   33.0120 C   0  0  0  0  0  0  0  0  0  0  0  0
  -16.9350  -13.1290   31.8790 F   0  0  0  0  0  0  0  0  0  0  0  0
  -16.8860  -14.0950   34.2900 C   0  0  0  0  0  0  0  0  0  0  0  0
  -19.4790  -15.7120   36.0570 H   0  0  0  0  0  0  0  0  0  0  0  0
  -20.7250  -15.2650   33.8990 H   0  0  0  0  0  0  0  0  0  0  0  0
  -15.9030  -13.7960   34.3900 H   0  0  0  0  0  0  0  0  0  0  0  0
  -19.7910  -14.0000   31.5880 O   0  0  0  0  0  0  0  0  0  0  0  0
  -19.7950  -12.6210   30.9960 C   0  0  0  0  0  0  0  0  0  0  0  0
  -20.2510  -11.8120   31.5270 H   0  0  0  0  0  0  0  0  0  0  0  0
  -19.7970  -11.6380   30.5740 H   0  0  0  0  0  0  0  0  0  0  0  0
  -19.1590  -12.3780   29.6590 C   0  0  0  0  0  0  0  0  0  0  0  0
  -18.2580  -11.1950   29.4620 C   0  0  0  0  0  0  0  0  0  0  0  0
  -17.6220  -10.9510   28.1250 C   0  0  0  0  0  0  0  0  0  0  0  0
  -17.8880  -11.8900   26.9860 C   0  0  0  0  0  0  0  0  0  0  0  0
  -18.7890  -13.0730   27.1830 C   0  0  0  0  0  0  0  0  0  0  0  0
  -19.4250  -13.3160   28.5200 C   0  0  0  0  0  0  0  0  0  0  0  0
  -18.0750  -10.5490   30.2460 H   0  0  0  0  0  0  0  0  0  0  0  0
  -17.0020  -10.1370   27.9900 H   0  0  0  0  0  0  0  0  0  0  0  0
  -17.4510  -11.7220   26.0660 H   0  0  0  0  0  0  0  0  0  0  0  0
  -18.9720  -13.7190   26.3990 H   0  0  0  0  0  0  0  0  0  0  0  0
  -20.0450  -14.1300   28.6560 H   0  0  0  0  0  0  0  0  0  0  0  0
  -10.7740  -15.6130   40.0890 C   0  0  0  0  0 15  0  0  0  0  0  0
  -10.9640  -14.8630   41.3740 C   0  0  0  0  0  2  0  0  0  0  0  0
  -12.4290  -14.8630   41.6980 C   0  0  0  0  0  0  0  0  0  0  0  0
  -13.1440  -15.6130   40.6140 C   0  0  0  0  0  0  0  0  0  0  0  0
  -12.1210  -16.0760   39.6190 O   0  0  0  0  0  1  0  0  0  0  0  0
  -10.2190  -14.4250   41.9360 H   0  0  0  0  0  0  0  0  0  0  0  0
  -12.8680  -14.4240   42.5230 H   0  0  0  0  0  0  0  0  0  0  0  0
   -9.4670  -15.8560   39.3960 C   0  0  0  0  0  3  0  0  0  0  0  0
   -8.5460  -15.6740   39.9100 H   0  0  0  0  0  0  0  0  0  0  0  0
   -9.4790  -15.5000   40.4040 H   0  0  0  0  0  0  0  0  0  0  0  0
   -9.3970  -17.8540   33.7380 O   0  0  0  0  0 15  0  0  0  0  0  0
   -9.4140  -17.3540   35.1530 S   0  0  0  0  0 15  0  0  0  0  0  0
  -10.0970  -16.0600   35.4830 C   0  0  0  0  0  2  0  0  0  0  0  0
  -10.1150  -15.5610   36.8960 C   0  0  0  0  0  2  0  0  0  0  0  0
   -9.4490  -16.3560   37.9810 N   0  0  0  0  0  2  0  0  0  0  0  0
   -8.7670  -17.6500   37.6510 C   0  0  0  0  0  3  0  0  0  0  0  0
   -8.7490  -18.1490   36.2370 C   0  0  0  0  0  2  0  0  0  0  0  0
  -10.5720  -15.4930   34.7090 H   0  0  0  0  0  0  0  0  0  0  0  0
  -10.5840  -15.1370   35.7180 H   0  0  0  0  0  0  0  0  0  0  0  0
  -10.6010  -14.6380   37.1330 H   0  0  0  0  0  0  0  0  0  0  0  0
  -10.1270  -15.2050   37.9050 H   0  0  0  0  0  0  0  0  0  0  0  0
   -8.2920  -18.2170   38.4250 H   0  0  0  0  0  0  0  0  0  0  0  0
   -8.2790  -18.5730   37.4160 H   0  0  0  0  0  0  0  0  0  0  0  0
   -8.2620  -19.0720   36.0010 H   0  0  0  0  0  0  0  0  0  0  0  0
   -8.7360  -18.5060   35.2280 H   0  0  0  0  0  0  0  0  0  0  0  0
  1 45  1  0
  1  2  1  0
  2 12  1  0
  3  2  2  0
  3 13  1  0
  4  3  1  0
  5  4  1  0
  6  5  2  0
  7  8  2  0
  7  6  1  0
  8 10  1  0
  9 15  1  0
  9  8  1  0
 10 11  1  0
 10  4  2  0
 11  1  2  0
 14  6  1  0
 16 11  1  0
 17  9  1  0
 18 17  1  0
 18 24  1  0
 19 18  2  0
 20 21  2  0
 20 19  1  0
 21 23  1  0
 22 21  1  0
 23 26  1  0
 23 17  2  0
 25 19  1  0
 27 20  1  0
 28 29  1  0
 28 27  1  0
 30 28  1  0
 31 28  1  0
 32 31  1  0
 32 37  1  0
 33 32  2  0
 34 35  2  0
 34 33  1  0
 35 36  1  0
 36 41  1  0
 36 31  2  0
 38 33  1  0
 39 34  1  0
 40 35  1  0
 43 44  1  0
 43 47  1  0
 44 48  1  0
 45 44  2  0
 46 45  1  0
 49 50  1  0
 49 51  1  0
 54 60  1  0
 55 61  1  0
 55 62  1  0
 56 49  1  0
 57 56  1  0
 57 63  1  0
 59 54  1  0
 64 57  1  0
 65 58  1  0
 66 58  1  0
M  END
>  <minimizedAffinity>  (287) 
-6.78865337

$$$$

     RDKit          3D

 43 46  0  0  0  0  0  0  0  0999 V2000
  -16.2810  -14.0880   34.2340 C   0  0  0  0  0  0  0  0  0  0  0  0
  -14.8670  -14.0630   33.7330 S   0  0  0  0  0  0  0  0  0  0  0  0
  -14.0790  -15.0700   34.5190 C   0  0  0  0  0  0  0  0  0  0  0  0
  -15.0070  -15.7160   35.5050 C   0  0  0  0  0  0  0  0  0  0  0  0
  -16.3670  -15.1100   35.3290 C   0  0  0  0  0  0  0  0  0  0  0  0
  -14.7530  -16.4500   36.1850 H   0  0  0  0  0  0  0  0  0  0  0  0
  -12.6210  -15.3760   34.3480 N   0  0  0  0  0  0  0  0  0  0  0  0
  -11.8350  -15.2460   33.0770 C   0  0  0  0  0  0  0  0  0  0  0  0
  -10.4210  -15.6550   33.3610 N   0  0  0  0  0  0  0  0  0  0  0  0
  -10.3320  -16.0390   34.8090 C   0  0  0  0  0  0  0  0  0  0  0  0
   -9.1890  -16.5230   35.6510 C   0  0  0  0  0  0  0  0  0  0  0  0
   -9.4050  -16.8340   37.1020 C   0  0  0  0  0  0  0  0  0  0  0  0
  -10.7640  -16.6620   37.7120 C   0  0  0  0  0  0  0  0  0  0  0  0
  -11.9080  -16.1780   36.8700 C   0  0  0  0  0  0  0  0  0  0  0  0
  -11.6920  -15.8660   35.4190 C   0  0  0  0  0  0  0  0  0  0  0  0
  -12.2040  -14.9300   32.1660 H   0  0  0  0  0  0  0  0  0  0  0  0
   -8.2530  -16.6410   35.2310 H   0  0  0  0  0  0  0  0  0  0  0  0
  -10.9130  -16.8760   38.7100 H   0  0  0  0  0  0  0  0  0  0  0  0
  -12.8430  -16.0590   37.2890 H   0  0  0  0  0  0  0  0  0  0  0  0
   -8.2610  -17.3180   37.9440 C   0  0  0  0  0  0  0  0  0  0  0  0
   -7.1180  -17.8020   38.7850 F   0  0  0  0  0  0  0  0  0  0  0  0
   -8.1850  -15.9770   38.6110 F   0  0  0  0  0  0  0  0  0  0  0  0
   -8.3380  -18.6590   37.2760 F   0  0  0  0  0  0  0  0  0  0  0  0
  -18.3200  -12.5460   34.6990 N   0  0  0  0  0  0  0  0  0  0  0  0
  -17.4090  -13.2400   33.7290 C   0  0  0  0  0  0  0  0  0  0  0  0
  -17.6290  -13.0850   32.2520 O   0  0  0  0  0  0  0  0  0  0  0  0
  -18.1760  -12.6480   35.6680 H   0  0  0  0  0  0  0  0  0  0  0  0
  -19.0610  -11.9890   34.3680 H   0  0  0  0  0  0  0  0  0  0  0  0
  -17.5980  -15.4620   36.1100 O   0  0  0  0  0  0  0  0  0  0  0  0
  -17.7260  -15.0320   37.5430 C   0  0  0  0  0  0  0  0  0  0  0  0
  -17.8310  -13.9940   37.7820 H   0  0  0  0  0  0  0  0  0  0  0  0
  -17.8170  -14.7250   38.5630 H   0  0  0  0  0  0  0  0  0  0  0  0
  -17.7050  -16.0560   38.6370 C   0  0  0  0  0  0  0  0  0  0  0  0
  -18.9560  -16.8060   38.9860 C   0  0  0  0  0  0  0  0  0  0  0  0
  -18.9370  -17.8310   40.0820 C   0  0  0  0  0  0  0  0  0  0  0  0
  -17.6650  -18.1060   40.8280 C   0  0  0  0  0  0  0  0  0  0  0  0
  -16.4130  -17.3570   40.4790 C   0  0  0  0  0  0  0  0  0  0  0  0
  -16.4330  -16.3320   39.3840 C   0  0  0  0  0  0  0  0  0  0  0  0
  -15.1820  -15.5820   39.0340 Br  0  0  0  0  0  0  0  0  0  0  0  0
  -19.8320  -16.6160   38.4730 H   0  0  0  0  0  0  0  0  0  0  0  0
  -19.7980  -18.3460   40.3220 H   0  0  0  0  0  0  0  0  0  0  0  0
  -17.6510  -18.8110   41.5810 H   0  0  0  0  0  0  0  0  0  0  0  0
  -15.5380  -17.5460   40.9920 H   0  0  0  0  0  0  0  0  0  0  0  0
  1  5  2  0
  2  1  1  0
  2  3  1  0
  3  4  2  0
  4  6  1  0
  5  4  1  0
  5 29  1  0
  7  3  1  0
  7 15  1  0
  8  9  2  0
  8  7  1  0
  9 10  1  0
 10 15  2  0
 10 11  1  0
 11 12  2  0
 12 13  1  0
 12 20  1  0
 13 18  1  0
 14 19  1  0
 14 13  2  0
 15 14  1  0
 16  8  1  0
 17 11  1  0
 20 22  1  0
 20 21  1  0
 23 20  1  0
 24 27  1  0
 25  1  1  0
 25 24  1  0
 26 25  2  0
 28 24  1  0
 29 30  1  0
 30 31  1  0
 30 32  1  0
 30 33  1  0
 33 34  2  0
 33 38  1  0
 34 35  1  0
 35 41  1  0
 35 36  2  0
 36 42  1  0
 37 36  1  0
 37 43  1  0
 38 37  2  0
 39 38  1  0
 40 34  1  0
M  END
>  <minimizedAffinity>  (288) 
-9.66038227

$$$$

     RDKit          3D

 44 45  0  0  0  0  0  0  0  0999 V2000
  -15.2730  -15.3150   35.6010 C   0  0  0  0  0  0  0  0  0  0  0  0
  -16.7510  -15.2660   35.8490 C   0  0  0  0  0  0  0  0  0  0  0  0
  -17.6420  -14.4930   34.9220 C   0  0  0  0  0  3  0  0  0  0  0  0
  -17.0540  -13.7700   33.7470 N   0  0  0  0  0  0  0  0  0  0  0  0
  -15.5760  -13.8190   33.4980 C   0  0  0  0  0  0  0  0  0  0  0  0
  -14.9880  -13.0960   32.3230 N   0  0  0  0  0  0  0  0  0  0  0  0
  -14.6850  -14.5920   34.4260 N   0  0  0  0  0  2  0  0  0  0  0  0
  -17.1560  -15.7640   36.6570 H   0  0  0  0  0  0  0  0  0  0  0  0
  -18.6600  -14.4590   35.0920 H   0  0  0  0  0  0  0  0  0  0  0  0
  -14.0180  -13.1280   32.1610 H   0  0  0  0  0  0  0  0  0  0  0  0
   -9.9490  -16.6240   36.8550 C   0  0  0  0  0  3  0  0  0  0  0  0
  -10.4230  -15.7360   35.7440 C   0  0  0  0  0  0  0  0  0  0  0  0
  -11.8910  -15.4940   35.5520 C   0  0  0  0  0  0  0  0  0  0  0  0
  -12.8840  -16.1410   36.4720 C   0  0  0  0  0  0  0  0  0  0  0  0
  -14.3820  -16.0880   36.5280 C   0  0  0  0  0  0  0  0  0  0  0  0
  -14.8330  -16.9450   37.6740 C   0  0  0  0  0  0  0  0  0  0  0  0
  -13.6150  -17.5260   38.3260 N   0  0  0  0  0  0  0  0  0  0  0  0
  -12.4100  -17.0290   37.5830 N   0  0  0  0  0  0  0  0  0  0  0  0
  -10.9420  -17.2710   37.7750 N   0  0  0  0  0  0  0  0  0  0  0  0
   -9.7400  -15.2910   35.1110 H   0  0  0  0  0  0  0  0  0  0  0  0
  -12.2180  -14.8830   34.7870 H   0  0  0  0  0  0  0  0  0  0  0  0
  -15.8110  -17.1060   37.9630 H   0  0  0  0  0  0  0  0  0  0  0  0
   -8.4810  -16.8660   37.0470 O   0  0  0  0  0 15  0  0  0  0  0  0
   -7.8880  -16.8260   38.4240 C   0  0  0  0  0  3  0  0  0  0  0  0
   -7.8700  -15.9070   38.9730 H   0  0  0  0  0  0  0  0  0  0  0  0
   -8.2930  -15.9360   37.9900 H   0  0  0  0  0  0  0  0  0  0  0  0
   -7.3190  -18.0730   39.0330 C   0  0  0  0  0  0  0  0  0  0  0  0
   -6.8960  -18.0440   40.0160 H   0  0  0  0  0  0  0  0  0  0  0  0
   -7.3370  -18.9920   38.4850 H   0  0  0  0  0  0  0  0  0  0  0  0
   -6.9130  -18.9630   39.4670 H   0  0  0  0  0  0  0  0  0  0  0  0
  -15.8790  -12.3230   31.3960 C   0  0  0  0  0  0  0  0  0  0  0  0
  -15.8920  -10.8240   31.4460 C   0  0  0  0  0  0  0  0  0  0  0  0
  -16.7830  -10.0510   30.5190 C   0  0  0  0  0  0  0  0  0  0  0  0
  -17.6600  -10.7770   29.5420 C   0  0  0  0  0  0  0  0  0  0  0  0
  -17.6460  -12.2770   29.4920 C   0  0  0  0  0  0  0  0  0  0  0  0
  -16.7550  -13.0490   30.4190 C   0  0  0  0  0  0  0  0  0  0  0  0
  -15.2900  -10.3240   32.1180 H   0  0  0  0  0  0  0  0  0  0  0  0
  -16.7930   -9.0200   30.5530 H   0  0  0  0  0  0  0  0  0  0  0  0
  -18.2730  -10.2460   28.9040 H   0  0  0  0  0  0  0  0  0  0  0  0
  -16.7450  -14.0810   30.3850 H   0  0  0  0  0  0  0  0  0  0  0  0
  -18.5220  -13.0020   28.5150 C   0  0  0  0  0  0  0  0  0  0  0  0
  -19.3980  -13.7270   27.5370 F   0  0  0  0  0  0  0  0  0  0  0  0
  -19.1090  -13.8060   29.6370 F   0  0  0  0  0  0  0  0  0  0  0  0
  -17.9350  -12.1980   27.3920 F   0  0  0  0  0  0  0  0  0  0  0  0
  1  2  2  0
  1 15  1  0
  2  8  1  0
  3  9  1  0
  3  2  1  0
  4  3  1  0
  5  4  2  0
  5  7  1  0
  6  5  1  0
  7  1  1  0
 10  6  1  0
 11 19  2  0
 12 11  1  0
 13 12  2  0
 13 14  1  0
 14 15  2  0
 14 18  1  0
 15 16  1  0
 16 22  1  0
 16 17  2  0
 18 19  1  0
 18 17  1  0
 20 12  1  0
 21 13  1  0
 24 25  1  0
 24 27  1  0
 26 24  1  0
 27 30  1  0
 27 28  1  0
 29 27  1  0
 31 32  1  0
 31  6  1  0
 32 37  1  0
 33 38  1  0
 33 32  2  0
 34 33  1  0
 35 34  2  0
 35 36  1  0
 36 31  2  0
 39 34  1  0
 40 36  1  0
 41 35  1  0
 41 43  1  0
 42 41  1  0
 44 41  1  0
M  END
>  <minimizedAffinity>  (289) 
-9.40139675

$$$$

     RDKit          3D

 50 47  0  0  0  0  0  0  0  0999 V2000
  -10.3360  -16.3340   35.8450 C   0  0  0  0  0  0  0  0  0  0  0  0
  -10.0440  -15.9000   34.4380 N   0  0  0  0  0  0  0  0  0  0  0  0
  -11.3420  -15.5170   33.7930 C   0  0  0  0  0  0  0  0  0  0  0  0
  -12.4370  -15.7140   34.8000 N   0  0  0  0  0  0  0  0  0  0  0  0
  -11.8150  -16.2190   36.0680 C   0  0  0  0  0  0  0  0  0  0  0  0
  -11.4620  -15.1780   32.8250 H   0  0  0  0  0  0  0  0  0  0  0  0
   -6.2970  -18.2020   39.8690 F   0  0  0  0  0  0  0  0  0  0  0  0
   -7.3070  -17.7350   38.8630 C   0  0  0  0  0  0  0  0  0  0  0  0
   -7.4490  -16.2710   38.5670 C   0  0  0  0  0  0  0  0  0  0  0  0
   -8.4590  -15.8040   37.5610 C   0  0  0  0  0  0  0  0  0  0  0  0
   -9.3260  -16.8010   36.8510 C   0  0  0  0  0  0  0  0  0  0  0  0
   -9.1830  -18.2640   37.1470 C   0  0  0  0  0  0  0  0  0  0  0  0
   -8.1740  -18.7310   38.1530 C   0  0  0  0  0  0  0  0  0  0  0  0
   -6.8530  -15.5850   39.0560 H   0  0  0  0  0  0  0  0  0  0  0  0
   -8.5570  -14.7970   37.3580 H   0  0  0  0  0  0  0  0  0  0  0  0
   -9.7800  -18.9500   36.6580 H   0  0  0  0  0  0  0  0  0  0  0  0
   -8.0750  -19.7390   38.3560 H   0  0  0  0  0  0  0  0  0  0  0  0
  -12.5430  -16.5500   37.3360 C   0  0  0  0  0  0  0  0  0  0  0  0
  -13.8120  -17.3480   37.2870 C   0  0  0  0  0  0  0  0  0  0  0  0
  -14.5400  -17.6790   38.5560 C   0  0  0  0  0  0  0  0  0  0  0  0
  -13.9980  -17.2120   39.8750 N   0  0  0  0  0  0  0  0  0  0  0  0
  -12.7300  -16.4140   39.9240 C   0  0  0  0  0  0  0  0  0  0  0  0
  -12.0020  -16.0830   38.6550 C   0  0  0  0  0  0  0  0  0  0  0  0
  -14.1850  -17.6700   36.3800 H   0  0  0  0  0  0  0  0  0  0  0  0
  -15.4130  -18.2280   38.5220 H   0  0  0  0  0  0  0  0  0  0  0  0
  -12.3570  -16.0930   40.8310 H   0  0  0  0  0  0  0  0  0  0  0  0
  -11.1290  -15.5340   38.6890 H   0  0  0  0  0  0  0  0  0  0  0  0
  -13.8970  -15.4520   34.5780 C   0  0  0  0  0  0  0  0  0  0  0  0
  -14.5900  -16.2660   34.5580 H   0  0  0  0  0  0  0  0  0  0  0  0
  -14.9380  -15.2640   34.4190 H   0  0  0  0  0  0  0  0  0  0  0  0
  -14.3850  -14.0480   34.3820 C   0  0  0  0  0  0  0  0  0  0  0  0
  -14.9440  -13.5620   35.1550 H   0  0  0  0  0  0  0  0  0  0  0  0
  -14.7340  -13.0450   34.2430 H   0  0  0  0  0  0  0  0  0  0  0  0
  -14.0910  -13.3220   33.1020 C   0  0  0  0  0  3  0  0  0  0  0  0
  -13.0830  -13.2460   32.7510 H   0  0  0  0  0  0  0  0  0  0  0  0
  -13.8810  -12.8050   32.1900 H   0  0  0  0  0  0  0  0  0  0  0  0
  -15.2090  -12.7040   32.3160 N   0  0  0  0  0 15  0  0  0  0  0  0
  -15.5050  -13.1870   30.9260 C   0  0  0  0  0  2  0  0  0  0  0  0
  -16.6230  -12.5690   30.1410 C   0  0  0  0  0  2  0  0  0  0  0  0
  -17.4450  -11.4690   30.7430 O   0  0  0  0  0  1  0  0  0  0  0  0
  -17.1480  -10.9860   32.1330 C   0  0  0  0  0  3  0  0  0  0  0  0
  -16.0310  -11.6040   32.9180 C   0  0  0  0  0  2  0  0  0  0  0  0
  -14.9190  -13.9720   30.4970 H   0  0  0  0  0  0  0  0  0  0  0  0
  -15.7160  -13.5310   29.9360 H   0  0  0  0  0  0  0  0  0  0  0  0
  -16.8340  -12.9140   29.1500 H   0  0  0  0  0  0  0  0  0  0  0  0
  -17.4210  -12.1280   29.5800 H   0  0  0  0  0  0  0  0  0  0  0  0
  -17.7350  -10.2010   32.5620 H   0  0  0  0  0  0  0  0  0  0  0  0
  -16.9370  -10.6420   33.1230 H   0  0  0  0  0  0  0  0  0  0  0  0
  -15.8190  -11.2600   33.9100 H   0  0  0  0  0  0  0  0  0  0  0  0
  -15.2330  -12.0450   33.4790 H   0  0  0  0  0  0  0  0  0  0  0  0
  1  5  2  0
  1 11  1  0
  2  1  1  0
  3  2  2  0
  3  4  1  0
  4  5  1  0
  5 18  1  0
  6  3  1  0
  8  7  1  0
  9  8  1  0
  9 14  1  0
 10  9  2  0
 11 12  2  0
 11 10  1  0
 12 13  1  0
 13 17  1  0
 13  8  2  0
 15 10  1  0
 16 12  1  0
 18 23  1  0
 19 18  2  0
 19 20  1  0
 20 21  2  0
 21 22  1  0
 22 26  1  0
 23 27  1  0
 23 22  2  0
 24 19  1  0
 25 20  1  0
 28  4  1  0
 29 28  1  0
 30 28  1  0
 31 28  1  0
 31 32  1  0
 33 31  1  0
 34 31  1  0
 35 34  1  0
 36 34  1  0
 40 41  1  0
 41 47  1  0
 41 48  1  0
 42 50  1  0
 42 49  1  0
 43 38  1  0
 44 38  1  0
 45 39  1  0
 46 39  1  0
M  END
>  <minimizedAffinity>  (290) 
-10.3440475

$$$$

     RDKit          3D

 68 66  0  0  1  0  0  0  0  0999 V2000
  -18.6060  -11.3290   34.9290 C   0  0  0  0  0  0  0  0  0  0  0  0
  -19.4480  -10.9360   33.7520 C   0  0  0  0  0  0  0  0  0  0  0  0
  -19.0230  -11.3170   32.3650 C   0  0  0  0  0  0  0  0  0  0  0  0
  -17.7550  -12.0900   32.1550 C   0  0  0  0  0  0  0  0  0  0  0  0
  -17.3290  -12.4700   30.7670 N   0  0  0  0  0  0  0  0  0  0  0  0
  -16.0610  -13.2440   30.5570 C   0  0  0  0  0  0  0  0  0  0  0  0
  -15.2190  -13.6370   31.7350 N   0  0  0  0  0  0  0  0  0  0  0  0
  -15.6450  -13.2560   33.1220 C   0  0  0  0  0  0  0  0  0  0  0  0
  -14.8020  -13.6490   34.2990 N   0  0  0  0  0  0  0  0  0  0  0  0
  -16.9120  -12.4830   33.3320 C   0  0  0  0  0  0  0  0  0  0  0  0
  -17.3380  -12.1030   34.7190 C   0  0  0  0  0  0  0  0  0  0  0  0
  -20.3210  -10.4040   33.8960 H   0  0  0  0  0  0  0  0  0  0  0  0
  -19.6030  -11.0460   31.5540 H   0  0  0  0  0  0  0  0  0  0  0  0
  -15.7690  -13.5060   29.6030 H   0  0  0  0  0  0  0  0  0  0  0  0
  -15.0810  -13.4000   35.2100 H   0  0  0  0  0  0  0  0  0  0  0  0
  -16.7580  -12.3730   35.5290 H   0  0  0  0  0  0  0  0  0  0  0  0
  -13.5340  -14.4230   34.0890 C   0  0  0  0  0  0  0  0  0  0  0  0
  -12.2310  -13.8800   34.5970 C   0  0  0  0  0  0  0  0  0  0  0  0
  -10.9630  -14.6530   34.3870 C   0  0  0  0  0  0  0  0  0  0  0  0
  -10.9980  -15.9700   33.6690 C   0  0  0  0  0  0  0  0  0  0  0  0
  -12.3010  -16.5130   33.1610 C   0  0  0  0  0  0  0  0  0  0  0  0
  -13.5690  -15.7400   33.3710 C   0  0  0  0  0  0  0  0  0  0  0  0
  -12.2070  -12.9730   35.0900 H   0  0  0  0  0  0  0  0  0  0  0  0
  -10.0670  -14.2790   34.7360 H   0  0  0  0  0  0  0  0  0  0  0  0
  -12.3250  -17.4190   32.6680 H   0  0  0  0  0  0  0  0  0  0  0  0
  -14.4650  -16.1140   33.0220 H   0  0  0  0  0  0  0  0  0  0  0  0
   -9.7300  -16.7430   33.4590 O   0  0  0  0  0  0  0  0  0  0  0  0
   -9.1400  -17.5370   34.5870 C   0  0  0  0  0  0  0  0  0  0  0  0
   -8.5640  -18.4150   34.3800 H   0  0  0  0  0  0  0  0  0  0  0  0
   -8.7190  -18.1030   35.3920 H   0  0  0  0  0  0  0  0  0  0  0  0
   -9.3570  -17.1000   36.0050 C   0  0  0  0  0  0  0  0  0  0  0  0
   -8.2350  -16.4710   36.7760 C   0  0  0  0  0  0  0  0  0  0  0  0
   -8.4510  -16.0340   38.1950 C   0  0  0  0  0  0  0  0  0  0  0  0
   -9.7910  -16.2260   38.8420 C   0  0  0  0  0  0  0  0  0  0  0  0
  -10.9140  -16.8540   38.0710 C   0  0  0  0  0  0  0  0  0  0  0  0
  -10.6970  -17.2910   36.6530 C   0  0  0  0  0  0  0  0  0  0  0  0
   -7.3130  -16.3400   36.3310 H   0  0  0  0  0  0  0  0  0  0  0  0
   -7.6790  -15.6020   38.7250 H   0  0  0  0  0  0  0  0  0  0  0  0
   -9.9400  -15.9250   39.8180 H   0  0  0  0  0  0  0  0  0  0  0  0
  -11.4690  -17.7230   36.1220 H   0  0  0  0  0  0  0  0  0  0  0  0
  -12.2530  -17.0450   38.7180 C   0  0  0  0  0  0  0  0  0  0  0  0
  -13.5930  -17.2370   39.3660 F   0  0  0  0  0  0  0  0  0  0  0  0
  -11.6890  -16.5740   40.0260 F   0  0  0  0  0  0  0  0  0  0  0  0
  -12.8180  -17.5170   37.4110 F   0  0  0  0  0  0  0  0  0  0  0  0
  -19.5780  -11.0700   38.6780 C   0  0  0  0  0 15  0  0  0  0  0  0
  -19.1060  -11.8680   37.4990 N   0  0  0  0  0  1  0  0  0  0  0  0
  -19.0310  -10.9490   36.3160 C   0  0  0  0  0  3  0  0  0  0  0  0
  -19.4570   -9.5820   36.7640 C   0  0  0  0  0  0  0  0  0  0  0  0
  -19.7950   -9.6570   38.2240 S   0  0  0  0  0  0  0  0  0  0  0  0
  -19.5090   -8.7380   36.1720 H   0  0  0  0  0  0  0  0  0  0  0  0
  -19.7940  -11.5930   40.0670 C   0  0  0  0  0  2  0  0  0  0  0  0
  -20.3870  -11.0350   40.7620 H   0  0  0  0  0  0  0  0  0  0  0  0
  -20.2320  -10.6630   39.7710 H   0  0  0  0  0  0  0  0  0  0  0  0
  -19.1790  -12.8970   40.4820 N   0  0  0  0  0  1  0  0  0  0  0  0
  -19.0380  -13.1020   41.4710 H   0  0  0  0  0  0  0  0  0  0  0  0
  -18.7720  -13.8980   39.4430 C   0  0  0  0  0  2  0  0  0  0  0  0
  -18.7540  -13.6210   38.4100 H   0  0  0  0  0  0  0  0  0  0  0  0
  -19.0450  -12.9060   39.1520 H   0  0  0  0  0  0  0  0  0  0  0  0
  -18.3880  -15.2900   39.8520 C   0  0  0  0  0  3  0  0  0  0  0  0
  -18.7450  -15.6930   40.7780 H   0  0  0  0  0  0  0  0  0  0  0  0
  -19.0180  -14.7000   40.4860 H   0  0  0  0  0  0  0  0  0  0  0  0
  -17.5060  -16.1160   38.9650 S   0  0  1  0  0  0  0  0  0  0  0  0
  -16.3540  -15.2030   39.2600 O   0  0  0  0  0  0  0  0  0  0  0  0
  -18.6590  -17.0290   38.6690 O   0  0  0  0  0  0  0  0  0  0  0  0
  -16.6240  -16.9430   38.0770 C   0  0  0  0  0  0  0  0  0  0  0  0
  -17.0210  -17.8020   37.5780 H   0  0  0  0  0  0  0  0  0  0  0  0
  -15.5970  -16.6740   37.9430 H   0  0  0  0  0  0  0  0  0  0  0  0
  -15.9940  -17.5330   37.4440 H   0  0  0  0  0  0  0  0  0  0  0  0
  1 47  1  0
  2 12  1  0
  2  1  2  0
  3  2  1  0
  4  3  2  0
  4 10  1  0
  5  4  1  0
  6  5  2  0
  6  7  1  0
  7  8  2  0
  8 10  1  0
  8  9  1  0
  9 15  1  0
 10 11  2  0
 11  1  1  0
 11 16  1  0
 13  3  1  0
 14  6  1  0
 17  9  1  0
 17 18  1  0
 18 23  1  0
 19 18  2  0
 19 24  1  0
 20 19  1  0
 21 22  1  0
 21 20  2  0
 22 17  2  0
 25 21  1  0
 26 22  1  0
 27 20  1  0
 27 28  1  0
 28 30  1  0
 28 31  1  0
 29 28  1  0
 31 36  2  0
 31 32  1  0
 32 33  2  0
 33 38  1  0
 33 34  1  0
 34 39  1  0
 35 41  1  0
 35 34  2  0
 36 35  1  0
 37 32  1  0
 40 36  1  0
 41 42  1  0
 41 43  1  0
 44 41  1  0
 47 48  1  0
 47 46  1  0
 48 49  2  0
 50 48  1  0
 51 52  1  0
 53 51  1  0
 54 55  1  0
 57 56  1  0
 58 56  1  0
 59 61  1  0
 59 60  1  0
 62 63  2  0
 62 59  1  0
 64 62  2  0
 65 62  1  0
 66 65  1  0
 67 65  1  0
 68 65  1  0
M  END
>  <minimizedAffinity>  (291) 
-8.32687283

$$$$

     RDKit          3D

 55 58  0  0  0  0  0  0  0  0999 V2000
  -12.3760  -14.7630   33.6270 C   0  0  0  0  0  0  0  0  0  0  0  0
  -11.0230  -14.8920   32.9930 C   0  0  0  0  0  0  0  0  0  0  0  0
   -9.9450  -15.6790   33.6780 N   0  0  0  0  0  0  0  0  0  0  0  0
  -10.2210  -16.3360   34.9980 C   0  0  0  0  0  0  0  0  0  0  0  0
  -11.5740  -16.2070   35.6320 N   0  0  0  0  0  0  0  0  0  0  0  0
  -12.6520  -15.4210   34.9460 C   0  0  0  0  0  0  0  0  0  0  0  0
  -14.0050  -15.2910   35.5810 N   0  0  0  0  0  0  0  0  0  0  0  0
  -10.8330  -14.4400   32.0850 H   0  0  0  0  0  0  0  0  0  0  0  0
   -9.4800  -16.8780   35.4700 H   0  0  0  0  0  0  0  0  0  0  0  0
  -14.7120  -14.7750   35.1310 H   0  0  0  0  0  0  0  0  0  0  0  0
  -14.2810  -15.9490   36.9000 C   0  0  0  0  0  0  0  0  0  0  0  0
  -14.6180  -17.4100   36.9540 C   0  0  0  0  0  0  0  0  0  0  0  0
  -14.8940  -18.0670   38.2740 C   0  0  0  0  0  0  0  0  0  0  0  0
  -14.8330  -17.2640   39.5400 C   0  0  0  0  0  0  0  0  0  0  0  0
  -14.4960  -15.8040   39.4850 C   0  0  0  0  0  0  0  0  0  0  0  0
  -14.4350  -15.0000   40.7510 Cl  0  0  0  0  0  0  0  0  0  0  0  0
  -14.2200  -15.1460   38.1660 C   0  0  0  0  0  0  0  0  0  0  0  0
  -14.6600  -17.9620   36.0840 H   0  0  0  0  0  0  0  0  0  0  0  0
  -15.1250  -19.0720   38.3110 H   0  0  0  0  0  0  0  0  0  0  0  0
  -13.9880  -14.1410   38.1280 H   0  0  0  0  0  0  0  0  0  0  0  0
  -15.1080  -17.9220   40.8590 O   0  0  0  0  0  0  0  0  0  0  0  0
  -16.5230  -18.1740   41.2900 C   0  0  0  0  0  0  0  0  0  0  0  0
  -16.7540  -19.0260   41.8950 H   0  0  0  0  0  0  0  0  0  0  0  0
  -17.5320  -18.3540   41.5980 H   0  0  0  0  0  0  0  0  0  0  0  0
  -17.6130  -17.2320   40.8740 C   0  0  0  0  0  0  0  0  0  0  0  0
  -18.4260  -16.5190   41.9140 C   0  0  0  0  0  0  0  0  0  0  0  0
  -19.5160  -15.5760   41.4980 C   0  0  0  0  0  0  0  0  0  0  0  0
  -19.7940  -15.3470   40.0410 C   0  0  0  0  0  0  0  0  0  0  0  0
  -18.9810  -16.0610   39.0020 C   0  0  0  0  0  0  0  0  0  0  0  0
  -19.2590  -15.8320   37.5460 F   0  0  0  0  0  0  0  0  0  0  0  0
  -17.8910  -17.0030   39.4180 C   0  0  0  0  0  0  0  0  0  0  0  0
  -18.2340  -16.6760   42.9160 H   0  0  0  0  0  0  0  0  0  0  0  0
  -20.0750  -15.0860   42.2130 H   0  0  0  0  0  0  0  0  0  0  0  0
  -20.5440  -14.6990   39.7550 H   0  0  0  0  0  0  0  0  0  0  0  0
  -17.3320  -17.4940   38.7020 H   0  0  0  0  0  0  0  0  0  0  0  0
  -14.5310  -13.1900   32.2550 C   0  0  0  0  0  0  0  0  0  0  0  0
  -13.4530  -13.9760   32.9410 C   0  0  0  0  0  0  0  0  0  0  0  0
  -17.7340  -10.9140   31.6960 C   0  0  0  0  0  0  0  0  0  0  0  0
  -17.7630  -10.8290   30.1990 C   0  0  0  0  0  0  0  0  0  0  0  0
  -16.7150  -11.5310   29.3870 C   0  0  0  0  0  0  0  0  0  0  0  0
  -15.6380  -12.3180   30.0730 C   0  0  0  0  0  0  0  0  0  0  0  0
  -15.6080  -12.4030   31.5700 C   0  0  0  0  0  0  0  0  0  0  0  0
  -16.6560  -11.7010   32.3810 C   0  0  0  0  0  0  0  0  0  0  0  0
  -18.5050  -10.2880   29.7270 H   0  0  0  0  0  0  0  0  0  0  0  0
  -16.7350  -11.4730   28.3570 H   0  0  0  0  0  0  0  0  0  0  0  0
  -14.9170  -12.8010   29.5140 H   0  0  0  0  0  0  0  0  0  0  0  0
  -16.6360  -11.7590   33.4120 H   0  0  0  0  0  0  0  0  0  0  0  0
  -18.7460  -10.2880   34.0050 C   0  0  0  0  0  0  0  0  0  0  0  0
  -17.6620  -11.0650   34.6910 O   0  0  0  0  0  0  0  0  0  0  0  0
  -18.7820  -10.2120   32.5070 N   0  0  0  0  0  0  0  0  0  0  0  0
  -19.4930   -9.7020   32.0570 H   0  0  0  0  0  0  0  0  0  0  0  0
  -19.7940   -9.5860   34.8170 C   0  0  0  0  0  0  0  0  0  0  0  0
  -19.7690   -9.6400   35.8850 H   0  0  0  0  0  0  0  0  0  0  0  0
  -20.5670   -9.0310   34.3270 H   0  0  0  0  0  0  0  0  0  0  0  0
  -20.5420   -9.0850   35.3960 H   0  0  0  0  0  0  0  0  0  0  0  0
  1  6  1  0
  2  1  2  0
  2  3  1  0
  3  4  2  0
  4  9  1  0
  4  5  1  0
  6  7  1  0
  6  5  2  0
  7 11  1  0
  8  2  1  0
 10  7  1  0
 11 12  2  0
 11 17  1  0
 12 13  1  0
 13 19  1  0
 13 14  2  0
 14 21  1  0
 15 14  1  0
 15 16  1  0
 17 15  2  0
 18 12  1  0
 20 17  1  0
 21 22  1  0
 22 24  1  0
 22 23  1  0
 25 22  1  0
 25 26  1  0
 26 32  1  0
 27 26  2  0
 27 33  1  0
 28 27  1  0
 29 31  1  0
 29 28  2  0
 30 29  1  0
 31 25  2  0
 34 28  1  0
 35 31  1  0
 36 37  3  0
 37  1  1  0
 38 43  1  0
 38 50  1  0
 39 38  2  0
 40 41  2  0
 40 39  1  0
 41 42  1  0
 42 36  1  0
 42 43  2  0
 43 47  1  0
 44 39  1  0
 45 40  1  0
 46 41  1  0
 48 49  2  0
 48 52  1  0
 50 48  1  0
 51 50  1  0
 52 55  1  0
 52 53  1  0
 54 52  1  0
M  END
>  <minimizedAffinity>  (292) 
-6.17885351

$$$$

     RDKit          3D

 29 31  0  0  0  0  0  0  0  0999 V2000
  -17.2000  -14.2430   34.4880 O   0  0  0  0  0  0  0  0  0  0  0  0
  -15.8990  -14.7750   35.0110 C   0  0  0  0  0  0  0  0  0  0  0  0
  -15.7380  -15.7790   36.1140 N   0  0  0  0  0  0  0  0  0  0  0  0
  -14.2690  -16.0210   36.3080 C   0  0  0  0  0  0  0  0  0  0  0  0
  -13.5150  -16.9090   37.2530 C   0  0  0  0  0  0  0  0  0  0  0  0
  -12.0160  -16.9420   37.2150 C   0  0  0  0  0  0  0  0  0  0  0  0
  -11.2710  -16.0870   36.2320 C   0  0  0  0  0  0  0  0  0  0  0  0
   -9.7720  -16.1210   36.1940 I   0  0  0  0  0  0  0  0  0  0  0  0
  -12.0260  -15.1990   35.2880 C   0  0  0  0  0  0  0  0  0  0  0  0
  -13.5250  -15.1660   35.3260 C   0  0  0  0  0  0  0  0  0  0  0  0
  -14.5320  -14.3960   34.5240 C   0  0  0  0  0  0  0  0  0  0  0  0
  -14.2260  -13.4190   33.4280 C   0  0  0  0  0  0  0  0  0  0  0  0
  -16.4660  -16.2050   36.6210 H   0  0  0  0  0  0  0  0  0  0  0  0
  -14.0270  -17.4970   37.9280 H   0  0  0  0  0  0  0  0  0  0  0  0
  -11.4960  -17.5530   37.8650 H   0  0  0  0  0  0  0  0  0  0  0  0
  -11.5130  -14.6110   34.6120 H   0  0  0  0  0  0  0  0  0  0  0  0
  -13.2470  -13.2270   33.1670 H   0  0  0  0  0  0  0  0  0  0  0  0
  -15.3440  -12.7210   32.7120 C   0  0  0  0  0  0  0  0  0  0  0  0
  -15.8320  -13.2430   31.3930 C   0  0  0  0  0  0  0  0  0  0  0  0
  -16.9490  -12.5450   30.6770 C   0  0  0  0  0  0  0  0  0  0  0  0
  -17.4380  -13.0670   29.3580 Br  0  0  0  0  0  0  0  0  0  0  0  0
  -17.5800  -11.3240   31.2790 C   0  0  0  0  0  0  0  0  0  0  0  0
  -17.0920  -10.8020   32.5980 C   0  0  0  0  0  0  0  0  0  0  0  0
  -17.7220   -9.5810   33.2010 Br  0  0  0  0  0  0  0  0  0  0  0  0
  -15.9740  -11.5000   33.3150 C   0  0  0  0  0  0  0  0  0  0  0  0
  -15.3980  -14.0840   30.9780 H   0  0  0  0  0  0  0  0  0  0  0  0
  -15.6390  -11.1410   34.2220 H   0  0  0  0  0  0  0  0  0  0  0  0
  -18.6980  -10.6270   30.5630 O   0  0  0  0  0  0  0  0  0  0  0  0
  -19.0030  -10.9530   29.7390 H   0  0  0  0  0  0  0  0  0  0  0  0
  1  2  2  0
  2  3  1  0
  3  4  1  0
  3 13  1  0
  4  5  1  0
  5 14  1  0
  6  5  2  0
  6 15  1  0
  7  6  1  0
  8  7  1  0
  9 10  1  0
  9  7  2  0
 10  4  2  0
 11  2  1  0
 11 10  1  0
 12 11  2  0
 16  9  1  0
 17 12  1  0
 18 25  1  0
 18 12  1  0
 19 18  2  0
 20 22  2  0
 20 19  1  0
 21 20  1  0
 22 23  1  0
 23 24  1  0
 23 25  2  0
 25 27  1  0
 26 19  1  0
 28 22  1  0
 29 28  1  0
M  END
>  <minimizedAffinity>  (293) 
-7.03314638

$$$$

     RDKit          3D

 53 51  0  0  1  0  0  0  0  0999 V2000
  -15.8190  -15.3500   35.5030 C   0  0  0  0  0  0  0  0  0  0  0  0
  -17.1340  -15.1140   34.8210 N   0  0  0  0  0  0  0  0  0  0  0  0
  -18.2250  -15.3600   35.8200 C   0  0  0  0  0  0  0  0  0  0  0  0
  -17.5850  -15.7480   37.1200 N   0  0  0  0  0  0  0  0  0  0  0  0
  -16.0980  -15.7420   36.9250 C   0  0  0  0  0  0  0  0  0  0  0  0
  -19.2390  -15.2770   35.6440 H   0  0  0  0  0  0  0  0  0  0  0  0
  -18.3050  -16.0840   38.3920 C   0  0  0  0  0  2  0  0  0  0  0  0
  -18.3410  -17.5000   38.8820 C   0  0  0  0  0  2  0  0  0  0  0  0
  -19.0620  -17.8360   40.1550 C   0  0  0  0  0  2  0  0  0  0  0  0
  -19.7460  -16.7550   40.9370 N   0  0  0  0  0  1  0  0  0  0  0  0
  -19.7100  -15.3370   40.4460 C   0  0  0  0  0  2  0  0  0  0  0  0
  -18.9900  -15.0020   39.1740 C   0  0  0  0  0  2  0  0  0  0  0  0
  -18.8190  -16.3240   39.2990 H   0  0  0  0  0  0  0  0  0  0  0  0
  -17.8530  -18.2730   38.3250 H   0  0  0  0  0  0  0  0  0  0  0  0
  -18.3670  -18.5120   39.2320 H   0  0  0  0  0  0  0  0  0  0  0  0
  -19.0870  -18.8470   40.5040 H   0  0  0  0  0  0  0  0  0  0  0  0
  -19.5750  -18.0760   41.0620 H   0  0  0  0  0  0  0  0  0  0  0  0
  -20.2360  -16.9840   41.8020 H   0  0  0  0  0  0  0  0  0  0  0  0
  -20.1980  -14.5660   41.0040 H   0  0  0  0  0  0  0  0  0  0  0  0
  -19.6840  -14.3270   40.0960 H   0  0  0  0  0  0  0  0  0  0  0  0
  -18.9640  -13.9910   38.8240 H   0  0  0  0  0  0  0  0  0  0  0  0
  -18.4760  -14.7630   38.2660 H   0  0  0  0  0  0  0  0  0  0  0  0
  -10.3960  -14.8190   32.9910 F   0  0  0  0  0  0  0  0  0  0  0  0
  -11.7520  -14.9520   33.6190 C   0  0  0  0  0  0  0  0  0  0  0  0
  -12.7480  -15.9210   33.0550 C   0  0  0  0  0  0  0  0  0  0  0  0
  -14.1040  -16.0530   33.6830 C   0  0  0  0  0  0  0  0  0  0  0  0
  -14.4630  -15.2170   34.8750 C   0  0  0  0  0  0  0  0  0  0  0  0
  -13.4670  -14.2480   35.4390 C   0  0  0  0  0  0  0  0  0  0  0  0
  -12.1110  -14.1150   34.8110 C   0  0  0  0  0  0  0  0  0  0  0  0
  -12.5010  -16.4960   32.2340 H   0  0  0  0  0  0  0  0  0  0  0  0
  -14.7900  -16.7200   33.2950 H   0  0  0  0  0  0  0  0  0  0  0  0
  -13.7140  -13.6730   36.2600 H   0  0  0  0  0  0  0  0  0  0  0  0
  -11.4260  -13.4490   35.1990 H   0  0  0  0  0  0  0  0  0  0  0  0
  -15.0700  -16.0700   37.9660 C   0  0  0  0  0  3  0  0  0  0  0  0
  -15.2640  -15.6150   39.3820 C   0  0  0  0  0  0  0  0  0  0  0  0
  -14.2350  -15.9440   40.4240 C   0  0  0  0  0  0  0  0  0  0  0  0
  -13.0130  -16.7270   40.0480 N   0  0  0  0  0  0  0  0  0  0  0  0
  -12.8190  -17.1820   38.6320 C   0  0  0  0  0  0  0  0  0  0  0  0
  -13.8470  -16.8540   37.5910 N   0  0  0  0  0  0  0  0  0  0  0  0
  -16.1050  -15.0760   39.6400 H   0  0  0  0  0  0  0  0  0  0  0  0
  -14.3690  -15.6300   41.3970 H   0  0  0  0  0  0  0  0  0  0  0  0
  -11.5950  -17.9660   38.2570 O   0  0  0  0  0  0  0  0  0  0  0  0
  -10.2700  -17.2730   38.1320 C   0  0  0  0  0  0  0  0  0  0  0  0
  -10.1250  -16.0890   37.2240 C   0  0  0  0  0  0  0  0  0  0  0  0
   -8.8010  -15.3980   37.0990 C   0  0  0  0  0  0  0  0  0  0  0  0
   -7.6200  -15.8900   37.8830 C   0  0  0  0  0  0  0  0  0  0  0  0
   -6.2960  -15.1980   37.7590 F   0  0  0  0  0  0  0  0  0  0  0  0
   -7.7650  -17.0750   38.7920 C   0  0  0  0  0  0  0  0  0  0  0  0
   -6.5850  -17.5670   39.5760 F   0  0  0  0  0  0  0  0  0  0  0  0
   -9.0910  -17.7660   38.9160 C   0  0  0  0  0  0  0  0  0  0  0  0
  -10.9370  -15.7510   36.6840 H   0  0  0  0  0  0  0  0  0  0  0  0
   -8.7000  -14.5820   36.4740 H   0  0  0  0  0  0  0  0  0  0  0  0
   -9.1900  -18.5820   39.5420 H   0  0  0  0  0  0  0  0  0  0  0  0
  1  5  2  0
  2  1  1  0
  2  3  2  0
  3  4  1  0
  4  7  1  0
  5  4  1  0
  6  3  1  0
  7 13  1  0
  8 15  1  0
  9 16  1  0
  9 17  1  0
 10 18  1  0
 11 19  1  0
 14  8  1  0
 20 11  1  0
 21 12  1  0
 22 12  1  0
 23 24  1  0
 24 29  1  0
 25 24  2  0
 25 26  1  0
 26 27  2  0
 27 28  1  0
 27  1  1  0
 28 32  1  0
 29 33  1  0
 29 28  2  0
 30 25  1  0
 31 26  1  0
 34  5  1  0
 34 35  1  0
 35 40  1  0
 35 36  2  0
 36 41  1  0
 37 36  1  0
 38 37  2  0
 39 34  1  0
 39 38  2  0
 42 38  1  0
 43 42  1  0
 43 50  1  0
 44 43  2  0
 45 44  1  0
 45 46  2  0
 46 48  1  0
 47 46  1  0
 48 50  2  0
 48 49  1  0
 50 53  1  0
 51 44  1  0
 52 45  1  0
M  END
>  <minimizedAffinity>  (294) 
-9.34222126

$$$$

     RDKit          3D

 33 34  0  0  0  0  0  0  0  0999 V2000
  -13.6190  -17.2850   39.3230 O   0  0  0  0  0  0  0  0  0  0  0  0
  -14.6710  -16.7460   38.3990 C   0  0  0  0  0  0  0  0  0  0  0  0
  -16.1490  -16.7480   38.6510 N   0  0  0  0  0  0  0  0  0  0  0  0
  -16.8200  -16.1130   37.4680 C   0  0  0  0  0  0  0  0  0  0  0  0
  -18.2630  -15.8430   37.1580 C   0  0  0  0  0  0  0  0  0  0  0  0
  -18.6410  -15.1790   35.8680 C   0  0  0  0  0  0  0  0  0  0  0  0
  -17.5770  -14.7850   34.8870 C   0  0  0  0  0  0  0  0  0  0  0  0
  -16.1350  -15.0550   35.1960 C   0  0  0  0  0  0  0  0  0  0  0  0
  -15.7560  -15.7190   36.4870 C   0  0  0  0  0  0  0  0  0  0  0  0
  -14.4270  -16.1100   37.0630 C   0  0  0  0  0  0  0  0  0  0  0  0
  -13.0910  -15.9020   36.4150 C   0  0  0  0  0  0  0  0  0  0  0  0
  -12.8470  -15.2660   35.0790 C   0  0  0  0  0  3  0  0  0  0  0  0
  -11.3690  -15.2650   34.8280 C   0  0  0  0  0  2  0  0  0  0  0  0
  -10.6970  -15.8990   36.0100 C   0  0  0  0  0  3  0  0  0  0  0  0
   -9.2540  -16.1690   36.3200 C   0  0  0  0  0  0  0  0  0  0  0  0
   -8.8760  -16.8330   37.6100 C   0  0  0  0  0  0  0  0  0  0  0  0
   -9.9400  -17.2270   38.5910 C   0  0  0  0  0  0  0  0  0  0  0  0
  -11.3830  -16.9570   38.2820 C   0  0  0  0  0  0  0  0  0  0  0  0
  -11.7610  -16.2930   36.9910 C   0  0  0  0  0  0  0  0  0  0  0  0
  -16.6000  -17.1030   39.4500 H   0  0  0  0  0  0  0  0  0  0  0  0
  -18.9950  -16.1140   37.8330 H   0  0  0  0  0  0  0  0  0  0  0  0
  -19.6340  -14.9930   35.6540 H   0  0  0  0  0  0  0  0  0  0  0  0
  -17.8380  -14.3280   33.9980 H   0  0  0  0  0  0  0  0  0  0  0  0
  -15.4030  -14.7840   34.5210 H   0  0  0  0  0  0  0  0  0  0  0  0
  -13.5970  -14.8820   34.4190 H   0  0  0  0  0  0  0  0  0  0  0  0
  -12.5110  -14.8410   34.1560 H   0  0  0  0  0  0  0  0  0  0  0  0
  -10.8790  -14.8780   33.9580 H   0  0  0  0  0  0  0  0  0  0  0  0
  -10.3010  -15.3380   34.7990 H   0  0  0  0  0  0  0  0  0  0  0  0
   -8.5220  -15.8980   35.6450 H   0  0  0  0  0  0  0  0  0  0  0  0
   -9.6800  -17.6840   39.4790 H   0  0  0  0  0  0  0  0  0  0  0  0
  -12.1150  -17.2280   38.9560 H   0  0  0  0  0  0  0  0  0  0  0  0
   -7.4330  -17.1030   37.9200 O   0  0  0  0  0  0  0  0  0  0  0  0
   -6.7690  -16.8570   37.3070 H   0  0  0  0  0  0  0  0  0  0  0  0
  2  3  1  0
  2  1  2  0
  3 20  1  0
  4  3  1  0
  5  4  1  0
  5 21  1  0
  6  5  2  0
  7  8  2  0
  7  6  1  0
  8  9  1  0
  9 10  1  0
  9  4  2  0
 10  2  1  0
 11 19  1  0
 11 10  2  0
 12 11  1  0
 14 15  2  0
 14 19  1  0
 15 16  1  0
 16 32  1  0
 16 17  2  0
 17 30  1  0
 18 17  1  0
 18 31  1  0
 19 18  2  0
 22  6  1  0
 23  7  1  0
 24  8  1  0
 25 12  1  0
 26 12  1  0
 27 13  1  0
 28 13  1  0
 29 15  1  0
 33 32  1  0
M  END
>  <minimizedAffinity>  (295) 
-9.6892271

$$$$

     RDKit          3D

 52 55  0  0  0  0  0  0  0  0999 V2000
  -18.2850  -15.2350   38.7880 C   0  0  0  0  0  0  0  0  0  0  0  0
  -18.3530  -13.7490   38.9820 C   0  0  0  0  0  0  0  0  0  0  0  0
  -18.8550  -12.8700   37.8740 C   0  0  0  0  0  0  0  0  0  0  0  0
  -19.2900  -13.4780   36.5740 C   0  0  0  0  0  0  0  0  0  0  0  0
  -19.2230  -14.9640   36.3800 C   0  0  0  0  0  0  0  0  0  0  0  0
  -18.7210  -15.8420   37.4880 C   0  0  0  0  0  0  0  0  0  0  0  0
  -18.0530  -13.3310   39.8770 H   0  0  0  0  0  0  0  0  0  0  0  0
  -18.9010  -11.8480   38.0070 H   0  0  0  0  0  0  0  0  0  0  0  0
  -19.5230  -15.3820   35.4850 H   0  0  0  0  0  0  0  0  0  0  0  0
  -18.6740  -16.8650   37.3550 H   0  0  0  0  0  0  0  0  0  0  0  0
  -19.7930  -12.5990   35.4670 N   0  0  0  0  0  0  0  0  0  0  0  0
  -18.9970  -12.4560   34.2030 C   0  0  0  0  0  0  0  0  0  0  0  0
  -17.6990  -13.1920   34.0470 O   0  0  0  0  0  0  0  0  0  0  0  0
  -19.4990  -11.5780   33.0960 N   0  0  0  0  0  0  0  0  0  0  0  0
  -20.6450  -12.1170   35.5690 H   0  0  0  0  0  0  0  0  0  0  0  0
  -20.3510  -11.0950   33.1980 H   0  0  0  0  0  0  0  0  0  0  0  0
  -18.7040  -11.4350   31.8330 C   0  0  0  0  0  0  0  0  0  0  0  0
  -19.0330  -12.2810   30.6390 C   0  0  0  0  0  0  0  0  0  0  0  0
  -18.2380  -12.1380   29.3750 C   0  0  0  0  0  0  0  0  0  0  0  0
  -17.1130  -11.1480   29.3050 C   0  0  0  0  0  0  0  0  0  0  0  0
  -16.7830  -10.3020   30.4990 C   0  0  0  0  0  0  0  0  0  0  0  0
  -17.5790  -10.4450   31.7630 C   0  0  0  0  0  0  0  0  0  0  0  0
  -17.2490   -9.5990   32.9570 F   0  0  0  0  0  0  0  0  0  0  0  0
  -19.8080  -12.9620   30.6870 H   0  0  0  0  0  0  0  0  0  0  0  0
  -16.5650  -11.0500   28.4360 H   0  0  0  0  0  0  0  0  0  0  0  0
  -16.0090   -9.6210   30.4510 H   0  0  0  0  0  0  0  0  0  0  0  0
  -18.5670  -12.9840   28.1810 C   0  0  0  0  0  0  0  0  0  0  0  0
  -18.8970  -13.8300   26.9880 F   0  0  0  0  0  0  0  0  0  0  0  0
  -19.3120  -13.9400   29.0650 F   0  0  0  0  0  0  0  0  0  0  0  0
  -17.8230  -12.0270   27.2980 F   0  0  0  0  0  0  0  0  0  0  0  0
  -17.7830  -16.1130   39.8950 O   0  0  0  0  0  0  0  0  0  0  0  0
   -9.6990  -17.2550   37.6890 C   0  0  0  0  0  0  0  0  0  0  0  0
  -10.8100  -17.4160   36.6940 O   0  0  0  0  0  0  0  0  0  0  0  0
  -10.0110  -16.8850   39.1090 N   0  0  0  0  0  0  0  0  0  0  0  0
  -11.4340  -16.6750   39.5330 C   0  0  0  0  0  0  0  0  0  0  0  0
  -11.8970  -16.3040   40.9110 N   0  0  0  0  0  0  0  0  0  0  0  0
  -13.3940  -16.1990   40.8840 C   0  0  0  0  0  0  0  0  0  0  0  0
  -14.3960  -15.8640   41.9480 C   0  0  0  0  0  0  0  0  0  0  0  0
  -15.8590  -15.8360   41.6190 C   0  0  0  0  0  0  0  0  0  0  0  0
  -16.3200  -16.1420   40.2250 C   0  0  0  0  0  0  0  0  0  0  0  0
  -15.3180  -16.4770   39.1600 C   0  0  0  0  0  0  0  0  0  0  0  0
  -13.8550  -16.5050   39.4890 C   0  0  0  0  0  0  0  0  0  0  0  0
  -12.6430  -16.8000   38.6540 S   0  0  0  0  0  0  0  0  0  0  0  0
   -9.2810  -16.7800   39.7620 H   0  0  0  0  0  0  0  0  0  0  0  0
  -14.0790  -15.6540   42.9070 H   0  0  0  0  0  0  0  0  0  0  0  0
  -16.5490  -15.6050   42.3510 H   0  0  0  0  0  0  0  0  0  0  0  0
  -15.6350  -16.6880   38.2010 H   0  0  0  0  0  0  0  0  0  0  0  0
   -8.2750  -17.4650   37.2650 O   0  0  0  0  0  0  0  0  0  0  0  0
   -7.3650  -18.3230   38.0920 C   0  0  0  0  0  0  0  0  0  0  0  0
   -7.7300  -18.7860   38.9850 H   0  0  0  0  0  0  0  0  0  0  0  0
   -6.3490  -18.4730   37.7890 H   0  0  0  0  0  0  0  0  0  0  0  0
   -6.7150  -18.9350   38.6830 H   0  0  0  0  0  0  0  0  0  0  0  0
  1  2  1  0
  1 31  1  0
  2  7  1  0
  3  8  1  0
  3  2  2  0
  4  3  1  0
  5  4  2  0
  5  6  1  0
  6  1  2  0
  9  5  1  0
 10  6  1  0
 11 15  1  0
 11  4  1  0
 12 11  1  0
 13 12  2  0
 14 16  1  0
 14 12  1  0
 17 14  1  0
 18 24  1  0
 18 17  2  0
 19 18  1  0
 20 19  2  0
 20 21  1  0
 21 22  2  0
 22 17  1  0
 22 23  1  0
 25 20  1  0
 26 21  1  0
 27 29  1  0
 27 19  1  0
 28 27  1  0
 30 27  1  0
 31 40  1  0
 32 34  1  0
 33 32  2  0
 34 35  1  0
 34 44  1  0
 35 36  2  0
 37 36  1  0
 37 38  1  0
 38 45  1  0
 39 38  2  0
 39 46  1  0
 40 39  1  0
 41 42  1  0
 41 40  2  0
 42 37  2  0
 43 42  1  0
 43 35  1  0
 47 41  1  0
 48 32  1  0
 48 49  1  0
 49 52  1  0
 49 50  1  0
 51 49  1  0
M  END
>  <minimizedAffinity>  (296) 
-6.84876394

$$$$

     RDKit          3D

 43 45  0  0  1  0  0  0  0  0999 V2000
  -17.7770  -12.5230   32.1040 C   0  0  0  0  0  0  0  0  0  0  0  0
  -19.2380  -12.4230   32.4280 C   0  0  0  0  0  0  0  0  0  0  0  0
  -19.7950  -13.1480   33.6170 C   0  0  0  0  0  0  0  0  0  0  0  0
  -18.8900  -13.9730   34.4840 C   0  0  0  0  0  0  0  0  0  0  0  0
  -17.4280  -14.0730   34.1610 C   0  0  0  0  0  0  0  0  0  0  0  0
  -16.8720  -13.3480   32.9710 C   0  0  0  0  0  0  0  0  0  0  0  0
  -16.7850  -14.9550   35.1900 C   0  0  0  0  0  3  0  0  0  0  0  0
  -15.3330  -15.3260   35.2490 C   0  0  0  0  0  0  0  0  0  0  0  0
  -17.8490  -15.3990   36.1490 C   0  0  0  0  0  0  0  0  0  0  0  0
  -17.6480  -16.2940   37.3360 O   0  0  0  0  0  0  0  0  0  0  0  0
  -19.1500  -14.7920   35.7130 N   0  0  0  0  0  0  0  0  0  0  0  0
  -19.8610  -11.8560   31.8320 H   0  0  0  0  0  0  0  0  0  0  0  0
  -20.8000  -13.0790   33.8400 H   0  0  0  0  0  0  0  0  0  0  0  0
  -15.8660  -13.4170   32.7490 H   0  0  0  0  0  0  0  0  0  0  0  0
  -14.6790  -14.9660   34.5370 H   0  0  0  0  0  0  0  0  0  0  0  0
  -20.0210  -14.9110   36.1550 H   0  0  0  0  0  0  0  0  0  0  0  0
  -14.8330  -16.2220   36.3430 N   0  0  0  0  0  4  0  0  0  0  0  0
  -15.4660  -16.7790   36.8520 H   0  0  0  0  0  0  0  0  0  0  0  0
  -13.3680  -16.2700   36.6620 C   0  0  0  0  0  0  0  0  0  0  0  0
  -12.3790  -15.6110   35.7460 C   0  0  0  0  0  0  0  0  0  0  0  0
  -10.9140  -15.6580   36.0650 C   0  0  0  0  0  0  0  0  0  0  0  0
  -10.4380  -16.3650   37.2990 C   0  0  0  0  0  0  0  0  0  0  0  0
  -11.4260  -17.0240   38.2150 C   0  0  0  0  0  0  0  0  0  0  0  0
  -12.8910  -16.9770   37.8960 C   0  0  0  0  0  0  0  0  0  0  0  0
  -12.7070  -15.1240   34.8970 H   0  0  0  0  0  0  0  0  0  0  0  0
  -10.2350  -15.2050   35.4350 H   0  0  0  0  0  0  0  0  0  0  0  0
  -11.0990  -17.5110   39.0640 H   0  0  0  0  0  0  0  0  0  0  0  0
  -13.5710  -17.4300   38.5260 H   0  0  0  0  0  0  0  0  0  0  0  0
   -8.9720  -16.4130   37.6180 S   0  0  2  0  0  0  0  0  0  0  0  0
   -9.2680  -16.0180   39.0350 O   0  0  0  0  0  0  0  0  0  0  0  0
   -8.6780  -16.8080   36.2020 O   0  0  0  0  0  0  0  0  0  0  0  0
   -7.5080  -16.4610   37.9370 N   0  0  0  0  0  0  0  0  0  0  0  0
   -7.1840  -16.2450   38.8800 H   0  0  0  0  0  0  0  0  0  0  0  0
   -6.8360  -16.7100   37.2110 H   0  0  0  0  0  0  0  0  0  0  0  0
  -17.2210  -11.7990   30.9150 N   0  0  0  0  0  0  0  0  0  0  0  0
  -16.3760  -10.5750   31.1100 C   0  0  0  0  0  0  0  0  0  0  0  0
  -16.1700  -10.2180   32.0980 H   0  0  0  0  0  0  0  0  0  0  0  0
  -15.9790  -10.0580   30.2610 H   0  0  0  0  0  0  0  0  0  0  0  0
  -15.7730   -9.7010   31.2490 H   0  0  0  0  0  0  0  0  0  0  0  0
  -17.5090  -12.2980   29.5300 C   0  0  0  0  0  0  0  0  0  0  0  0
  -17.1120  -11.7810   28.6810 H   0  0  0  0  0  0  0  0  0  0  0  0
  -18.1120  -13.1710   29.3910 H   0  0  0  0  0  0  0  0  0  0  0  0
  -17.7150  -12.6550   28.5420 H   0  0  0  0  0  0  0  0  0  0  0  0
  1  2  2  0
  1  6  1  0
  2  3  1  0
  3 13  1  0
  3  4  2  0
  4 11  1  0
  5  4  1  0
  5  7  1  0
  6  5  2  0
  7  8  1  0
  7  9  1  0
  8 17  2  0
  9 10  2  0
 11  9  1  0
 11 16  1  0
 12  2  1  0
 14  6  1  0
 15  8  1  0
 17 19  1  0
 17 18  1  0
 19 24  1  0
 20 21  1  0
 20 19  2  0
 21 22  2  0
 22 29  1  0
 22 23  1  0
 23 27  1  0
 24 23  2  0
 24 28  1  0
 25 20  1  0
 26 21  1  0
 29 32  1  0
 29 30  2  0
 31 29  2  0
 32 33  1  0
 34 32  1  0
 35 36  1  0
 35  1  1  0
 36 39  1  0
 36 37  1  0
 38 36  1  0
 40 35  1  0
 41 40  1  0
 42 40  1  0
 43 40  1  0
M  END
>  <minimizedAffinity>  (297) 
-7.91118813

$$$$

     RDKit          3D

 36 37  0  0  0  0  0  0  0  0999 V2000
  -13.5180  -16.3810   37.0700 C   0  0  0  0  0  0  0  0  0  0  0  0
  -12.6770  -16.7790   38.2460 C   0  0  0  0  0  0  0  0  0  0  0  0
  -11.1820  -16.6750   38.1690 C   0  0  0  0  0  0  0  0  0  0  0  0
  -10.5300  -16.1710   36.9160 C   0  0  0  0  0  0  0  0  0  0  0  0
  -11.3710  -15.7730   35.7400 C   0  0  0  0  0  0  0  0  0  0  0  0
  -12.8650  -15.8770   35.8170 C   0  0  0  0  0  0  0  0  0  0  0  0
  -13.1260  -17.1260   39.1080 H   0  0  0  0  0  0  0  0  0  0  0  0
   -9.5010  -16.0990   36.8620 H   0  0  0  0  0  0  0  0  0  0  0  0
  -15.0130  -16.4850   37.1470 C   0  0  0  0  0  0  0  0  0  0  0  0
  -15.4780  -16.8440   38.0410 H   0  0  0  0  0  0  0  0  0  0  0  0
  -15.6130  -16.2010   36.3080 H   0  0  0  0  0  0  0  0  0  0  0  0
  -16.0790  -16.5600   37.2020 H   0  0  0  0  0  0  0  0  0  0  0  0
  -10.7180  -15.2690   34.4870 C   0  0  0  0  0  0  0  0  0  0  0  0
  -11.3180  -14.9850   33.6470 H   0  0  0  0  0  0  0  0  0  0  0  0
   -9.6520  -15.1950   34.4320 H   0  0  0  0  0  0  0  0  0  0  0  0
  -10.2530  -14.9100   33.5920 H   0  0  0  0  0  0  0  0  0  0  0  0
  -13.7070  -15.4780   34.6410 C   0  0  0  0  0  0  0  0  0  0  0  0
  -14.0410  -14.0340   34.4140 C   0  0  0  0  0  0  0  0  0  0  0  0
  -14.0560  -16.1980   33.9880 H   0  0  0  0  0  0  0  0  0  0  0  0
  -13.6930  -13.3140   35.0660 H   0  0  0  0  0  0  0  0  0  0  0  0
  -14.8830  -13.6350   33.2380 C   0  0  0  0  0  0  0  0  0  0  0  0
  -14.2310  -13.2850   31.9330 C   0  0  0  0  0  0  0  0  0  0  0  0
  -15.0720  -12.8860   30.7570 N   0  0  0  0  0  0  0  0  0  0  0  0
  -16.5660  -12.8370   30.8860 C   0  0  0  0  0  0  0  0  0  0  0  0
  -17.2180  -13.1870   32.1910 C   0  0  0  0  0  0  0  0  0  0  0  0
  -16.3770  -13.5860   33.3670 C   0  0  0  0  0  0  0  0  0  0  0  0
  -13.2030  -13.3190   31.8440 H   0  0  0  0  0  0  0  0  0  0  0  0
  -17.1450  -12.5630   30.0770 H   0  0  0  0  0  0  0  0  0  0  0  0
  -16.8250  -13.8270   34.2640 H   0  0  0  0  0  0  0  0  0  0  0  0
  -18.7120  -13.1380   32.3200 C   0  0  0  0  0  0  0  0  0  0  0  0
  -19.3650  -11.9990   33.0440 N   0  0  0  0  0  0  0  0  0  0  0  0
  -19.5520  -14.2290   31.7240 O   0  0  0  0  0  0  0  0  0  0  0  0
  -18.8140  -11.2830   33.4340 H   0  0  0  0  0  0  0  0  0  0  0  0
  -20.3460  -11.9660   33.1280 H   0  0  0  0  0  0  0  0  0  0  0  0
  -10.3410  -17.0740   39.3450 O   0  0  0  0  0  0  0  0  0  0  0  0
   -9.4070  -17.0080   39.2960 H   0  0  0  0  0  0  0  0  0  0  0  0
  1  9  1  0
  1  2  1  0
  2  7  1  0
  3  2  2  0
  3 35  1  0
  4  3  1  0
  5  6  1  0
  5  4  2  0
  6  1  2  0
  8  4  1  0
  9 12  1  0
  9 10  1  0
 11  9  1  0
 13  5  1  0
 14 13  1  0
 15 13  1  0
 16 13  1  0
 17  6  1  0
 18 17  2  0
 18 20  1  0
 19 17  1  0
 21 26  1  0
 21 18  1  0
 22 21  2  0
 23 24  2  0
 23 22  1  0
 24 25  1  0
 25 30  1  0
 25 26  2  0
 26 29  1  0
 27 22  1  0
 28 24  1  0
 30 31  1  0
 31 34  1  0
 31 33  1  0
 32 30  2  0
 36 35  1  0
M  END
>  <minimizedAffinity>  (298) 
-8.00795078

$$$$

     RDKit          3D

 32 31  0  0  0  0  0  0  0  0999 V2000
  -15.7610  -12.8260   32.1270 O   0  0  0  0  0  1  0  0  0  0  0  0
  -16.4090  -13.3980   33.3540 C   0  0  0  0  0  2  0  0  0  0  0  0
  -15.5810  -14.1360   34.3640 N   0  0  0  0  0  0  0  0  0  0  0  0
  -14.1060  -14.3020   34.1480 C   0  0  0  0  0  0  0  0  0  0  0  0
  -13.3230  -13.7880   32.9760 N   0  0  0  0  0  0  0  0  0  0  0  0
  -11.8880  -14.1790   33.1700 N   0  0  0  0  0  0  0  0  0  0  0  0
  -11.7840  -14.9350   34.4610 C   0  0  0  0  0  0  0  0  0  0  0  0
  -10.6180  -15.5640   35.1640 N   0  0  0  0  0  0  0  0  0  0  0  0
  -10.8230  -16.2690   36.4720 C   0  0  0  0  0  0  0  0  0  0  0  0
  -12.1940  -16.3450   37.0770 C   0  0  0  0  0  0  0  0  0  0  0  0
  -12.3990  -17.0500   38.3850 Br  0  0  0  0  0  0  0  0  0  0  0  0
  -13.3600  -15.7160   36.3730 C   0  0  0  0  0  0  0  0  0  0  0  0
  -13.1550  -15.0110   35.0650 C   0  0  0  0  0  0  0  0  0  0  0  0
  -16.0060  -14.5110   35.1690 H   0  0  0  0  0  0  0  0  0  0  0  0
  -11.1450  -13.9760   32.5560 H   0  0  0  0  0  0  0  0  0  0  0  0
  -14.3030  -15.7680   36.7890 H   0  0  0  0  0  0  0  0  0  0  0  0
   -9.6570  -16.8980   37.1760 C   0  0  0  0  0  0  0  0  0  0  0  0
   -8.7480  -16.2190   38.1560 C   0  0  0  0  0  0  0  0  0  0  0  0
   -7.7250  -17.2180   38.6090 C   0  0  0  0  0  0  0  0  0  0  0  0
   -8.0010  -18.5150   37.9080 C   0  0  0  0  0  0  0  0  0  0  0  0
   -9.1960  -18.3180   37.0220 O   0  0  0  0  0  0  0  0  0  0  0  0
   -8.8150  -15.2370   38.4650 H   0  0  0  0  0  0  0  0  0  0  0  0
   -6.9640  -17.0440   39.2830 H   0  0  0  0  0  0  0  0  0  0  0  0
   -7.4640  -19.3900   38.0160 H   0  0  0  0  0  0  0  0  0  0  0  0
  -17.8840  -13.2320   33.5700 C   0  0  0  0  0 15  0  0  0  0  0  0
  -19.2880  -13.7240   33.3800 C   0  0  0  0  0  3  0  0  0  0  0  0
  -19.0340  -12.4520   34.1330 C   0  0  0  0  0  2  0  0  0  0  0  0
  -18.9360  -13.1140   33.7230 H   0  0  0  0  0  0  0  0  0  0  0  0
  -19.9710  -14.4510   32.9910 H   0  0  0  0  0  0  0  0  0  0  0  0
  -20.2570  -13.3760   33.6670 H   0  0  0  0  0  0  0  0  0  0  0  0
  -19.4050  -11.6070   34.6750 H   0  0  0  0  0  0  0  0  0  0  0  0
  -18.1630  -11.8940   34.4040 H   0  0  0  0  0  0  0  0  0  0  0  0
  1  2  1  0
  2  3  1  0
  3 14  1  0
  4  3  1  0
  4 13  1  0
  5  6  1  0
  5  4  2  0
  6  7  1  0
  7 13  2  0
  7  8  1  0
  8  9  2  0
  9 10  1  0
  9 17  1  0
 10 11  1  0
 12 16  1  0
 12 10  2  0
 13 12  1  0
 15  6  1  0
 17 18  2  0
 18 22  1  0
 18 19  1  0
 19 23  1  0
 20 24  1  0
 20 19  2  0
 21 17  1  0
 21 20  1  0
 26 30  1  0
 26 28  1  0
 27 32  1  0
 27 31  1  0
 29 26  1  0
M  END
>  <minimizedAffinity>  (299) 
-8.81384563

$$$$

     RDKit          3D

 50 53  0  0  0  0  0  0  0  0999 V2000
  -18.6720  -13.5560   35.8900 C   0  0  0  0  0  0  0  0  0  0  0  0
  -19.7950  -13.2040   36.8200 C   0  0  0  0  0  0  0  0  0  0  0  0
  -19.7040  -13.5600   38.2740 N   0  0  0  0  0  0  0  0  0  0  0  0
  -18.4900  -14.2680   38.7990 C   0  0  0  0  0  0  0  0  0  0  0  0
  -17.3670  -14.6190   37.8690 N   0  0  0  0  0  0  0  0  0  0  0  0
  -17.4580  -14.2630   36.4140 C   0  0  0  0  0  0  0  0  0  0  0  0
  -16.3350  -14.6150   35.4840 N   0  0  0  0  0  0  0  0  0  0  0  0
  -20.6310  -12.7170   36.4590 H   0  0  0  0  0  0  0  0  0  0  0  0
  -18.4270  -14.5120   39.7990 H   0  0  0  0  0  0  0  0  0  0  0  0
  -16.3950  -14.3820   34.5300 H   0  0  0  0  0  0  0  0  0  0  0  0
  -15.1210  -15.3230   36.0080 C   0  0  0  0  0  0  0  0  0  0  0  0
  -13.7600  -14.9640   35.4880 C   0  0  0  0  0  0  0  0  0  0  0  0
  -12.5460  -15.6720   36.0130 C   0  0  0  0  0  0  0  0  0  0  0  0
  -12.6920  -16.7380   37.0570 C   0  0  0  0  0  0  0  0  0  0  0  0
  -14.0530  -17.0970   37.5770 C   0  0  0  0  0  0  0  0  0  0  0  0
  -14.1990  -18.1640   38.6210 Cl  0  0  0  0  0  0  0  0  0  0  0  0
  -15.2670  -16.3900   37.0530 C   0  0  0  0  0  0  0  0  0  0  0  0
  -13.6600  -14.2300   34.7700 H   0  0  0  0  0  0  0  0  0  0  0  0
  -11.6100  -15.4250   35.6550 H   0  0  0  0  0  0  0  0  0  0  0  0
  -16.2030  -16.6370   37.4100 H   0  0  0  0  0  0  0  0  0  0  0  0
  -11.4780  -17.4460   37.5810 O   0  0  0  0  0  0  0  0  0  0  0  0
  -10.1530  -17.2670   36.9010 C   0  0  0  0  0  0  0  0  0  0  0  0
  -10.1150  -17.0090   35.8630 H   0  0  0  0  0  0  0  0  0  0  0  0
   -9.2080  -17.1390   36.4150 H   0  0  0  0  0  0  0  0  0  0  0  0
   -8.8820  -17.4490   37.6750 C   0  0  0  0  0  0  0  0  0  0  0  0
   -8.1410  -16.2520   38.1920 C   0  0  0  0  0  0  0  0  0  0  0  0
   -6.8690  -16.4340   38.9670 C   0  0  0  0  0  0  0  0  0  0  0  0
   -6.3390  -17.8130   39.2240 C   0  0  0  0  0  0  0  0  0  0  0  0
   -7.0800  -19.0110   38.7070 C   0  0  0  0  0  0  0  0  0  0  0  0
   -6.5490  -20.3900   38.9640 F   0  0  0  0  0  0  0  0  0  0  0  0
   -8.3510  -18.8280   37.9320 C   0  0  0  0  0  0  0  0  0  0  0  0
   -8.5050  -15.3030   38.0160 H   0  0  0  0  0  0  0  0  0  0  0  0
   -6.3590  -15.6100   39.3230 H   0  0  0  0  0  0  0  0  0  0  0  0
   -5.4630  -17.9390   39.7570 H   0  0  0  0  0  0  0  0  0  0  0  0
   -8.8610  -19.6520   37.5770 H   0  0  0  0  0  0  0  0  0  0  0  0
  -18.8540  -12.8440   32.9810 C   0  0  0  0  0  0  0  0  0  0  0  0
  -18.7630  -13.2000   34.4360 C   0  0  0  0  0  0  0  0  0  0  0  0
  -19.1280  -11.7760   28.6180 C   0  0  0  0  0  0  0  0  0  0  0  0
  -18.7000  -10.7430   29.6180 C   0  0  0  0  0  0  0  0  0  0  0  0
  -18.6090  -11.0990   31.0720 C   0  0  0  0  0  0  0  0  0  0  0  0
  -18.9450  -12.4880   31.5270 C   0  0  0  0  0  0  0  0  0  0  0  0
  -19.3730  -13.5210   30.5270 C   0  0  0  0  0  0  0  0  0  0  0  0
  -19.4640  -13.1650   29.0730 C   0  0  0  0  0  0  0  0  0  0  0  0
  -18.4680   -9.7870   29.3050 H   0  0  0  0  0  0  0  0  0  0  0  0
  -18.3150  -10.3880   31.7600 H   0  0  0  0  0  0  0  0  0  0  0  0
  -19.6050  -14.4770   30.8400 H   0  0  0  0  0  0  0  0  0  0  0  0
  -19.7590  -13.8770   28.3850 H   0  0  0  0  0  0  0  0  0  0  0  0
  -19.2190  -11.4200   27.1640 N   0  0  0  0  0  0  0  0  0  0  0  0
  -18.9980  -10.5080   26.8660 H   0  0  0  0  0  0  0  0  0  0  0  0
  -19.5000  -12.0990   26.5080 H   0  0  0  0  0  0  0  0  0  0  0  0
  1  6  1  0
  1  2  2  0
  2  3  1  0
  3  4  2  0
  4  9  1  0
  5  4  1  0
  6  5  2  0
  7 11  1  0
  7  6  1  0
  8  2  1  0
 10  7  1  0
 11 17  1  0
 12 11  2  0
 12 13  1  0
 13 14  2  0
 14 15  1  0
 14 21  1  0
 15 16  1  0
 17 20  1  0
 17 15  2  0
 18 12  1  0
 19 13  1  0
 22 21  1  0
 22 25  1  0
 23 22  1  0
 24 22  1  0
 25 31  2  0
 25 26  1  0
 26 27  2  0
 27 28  1  0
 27 33  1  0
 28 34  1  0
 29 30  1  0
 29 28  2  0
 31 29  1  0
 32 26  1  0
 35 31  1  0
 36 37  3  0
 37  1  1  0
 38 43  2  0
 38 39  1  0
 39 40  2  0
 40 41  1  0
 40 45  1  0
 41 36  1  0
 42 46  1  0
 42 41  2  0
 43 42  1  0
 44 39  1  0
 47 43  1  0
 48 38  1  0
 49 48  1  0
 50 48  1  0
M  END
>  <minimizedAffinity>  (300) 
-7.77798271

$$$$

     RDKit          3D

 34 37  0  0  0  0  0  0  0  0999 V2000
  -10.6240  -16.0640   36.0450 C   0  0  0  0  0  0  0  0  0  0  0  0
  -10.3990  -15.4600   34.6900 N   0  0  0  0  0  0  0  0  0  0  0  0
  -11.7150  -14.9360   34.1940 N   0  0  0  0  0  0  0  0  0  0  0  0
  -12.1020  -14.2400   32.9230 C   0  0  0  0  0  0  0  0  0  0  0  0
  -13.5260  -13.8230   32.7000 C   0  0  0  0  0  0  0  0  0  0  0  0
  -14.5620  -14.1030   33.7480 C   0  0  0  0  0  0  0  0  0  0  0  0
  -14.1740  -14.8000   35.0190 C   0  0  0  0  0  0  0  0  0  0  0  0
  -12.7510  -15.2160   35.2420 C   0  0  0  0  0  0  0  0  0  0  0  0
  -12.0770  -15.9140   36.3860 C   0  0  0  0  0  0  0  0  0  0  0  0
  -11.3890  -14.0470   32.2020 H   0  0  0  0  0  0  0  0  0  0  0  0
  -13.7920  -13.3440   31.8260 H   0  0  0  0  0  0  0  0  0  0  0  0
  -15.5420  -13.8170   33.5940 H   0  0  0  0  0  0  0  0  0  0  0  0
  -14.8870  -14.9920   35.7400 H   0  0  0  0  0  0  0  0  0  0  0  0
   -6.4410  -18.6340   39.4950 F   0  0  0  0  0  0  0  0  0  0  0  0
   -7.4870  -17.9920   38.6320 C   0  0  0  0  0  0  0  0  0  0  0  0
   -8.4330  -18.8440   37.8400 C   0  0  0  0  0  0  0  0  0  0  0  0
   -9.4790  -18.2020   36.9780 C   0  0  0  0  0  0  0  0  0  0  0  0
   -9.5780  -16.7070   36.9070 C   0  0  0  0  0  0  0  0  0  0  0  0
   -8.6320  -15.8540   37.6990 C   0  0  0  0  0  0  0  0  0  0  0  0
   -7.5860  -16.4970   38.5620 C   0  0  0  0  0  0  0  0  0  0  0  0
   -8.3650  -19.8730   37.8880 H   0  0  0  0  0  0  0  0  0  0  0  0
  -10.1300  -18.7890   36.4330 H   0  0  0  0  0  0  0  0  0  0  0  0
   -8.7000  -14.8260   37.6510 H   0  0  0  0  0  0  0  0  0  0  0  0
   -6.9350  -15.9100   39.1070 H   0  0  0  0  0  0  0  0  0  0  0  0
  -12.7390  -16.3780   37.6490 C   0  0  0  0  0  0  0  0  0  0  0  0
  -12.2440  -15.8920   38.9790 C   0  0  0  0  0  0  0  0  0  0  0  0
  -12.9070  -16.3570   40.2410 C   0  0  0  0  0  0  0  0  0  0  0  0
  -14.0650  -17.3080   40.1740 N   0  0  0  0  0  0  0  0  0  0  0  0
  -14.5600  -17.7950   38.8450 C   0  0  0  0  0  0  0  0  0  0  0  0
  -13.8970  -17.3290   37.5820 C   0  0  0  0  0  0  0  0  0  0  0  0
  -11.4470  -15.2380   39.0240 H   0  0  0  0  0  0  0  0  0  0  0  0
  -12.5660  -16.0220   41.1560 H   0  0  0  0  0  0  0  0  0  0  0  0
  -15.3560  -18.4490   38.7980 H   0  0  0  0  0  0  0  0  0  0  0  0
  -14.2380  -17.6640   36.6670 H   0  0  0  0  0  0  0  0  0  0  0  0
  1  9  1  0
  1 18  1  0
  2  1  2  0
  3  2  1  0
  3  8  1  0
  4  3  1  0
  5  4  2  0
  5  6  1  0
  6  7  2  0
  7  8  1  0
  7 13  1  0
  8  9  2  0
  9 25  1  0
 10  4  1  0
 11  5  1  0
 12  6  1  0
 15 14  1  0
 16 21  1  0
 16 15  2  0
 17 16  1  0
 18 17  2  0
 18 19  1  0
 19 20  2  0
 20 15  1  0
 20 24  1  0
 22 17  1  0
 23 19  1  0
 25 26  1  0
 26 31  1  0
 26 27  2  0
 27 32  1  0
 28 27  1  0
 29 28  2  0
 30 25  2  0
 30 29  1  0
 33 29  1  0
 34 30  1  0
M  END
>  <minimizedAffinity>  (301) 
-9.18062019

$$$$

     RDKit          3D

 50 53  0  0  0  0  0  0  0  0999 V2000
  -18.1980  -14.9500   37.7000 C   0  0  0  0  0  0  0  0  0  0  0  0
  -18.3490  -15.5610   36.3380 C   0  0  0  0  0  0  0  0  0  0  0  0
  -18.8800  -14.7380   35.2020 C   0  0  0  0  0  0  0  0  0  0  0  0
  -19.2600  -13.3040   35.4270 C   0  0  0  0  0  0  0  0  0  0  0  0
  -19.1080  -12.6940   36.7890 C   0  0  0  0  0  0  0  0  0  0  0  0
  -18.5780  -13.5160   37.9250 C   0  0  0  0  0  0  0  0  0  0  0  0
  -18.0880  -16.5470   36.1830 H   0  0  0  0  0  0  0  0  0  0  0  0
  -18.9840  -15.1580   34.2650 H   0  0  0  0  0  0  0  0  0  0  0  0
  -19.3700  -11.7070   36.9440 H   0  0  0  0  0  0  0  0  0  0  0  0
  -18.4740  -13.0960   38.8620 H   0  0  0  0  0  0  0  0  0  0  0  0
  -19.7900  -12.4820   34.2910 N   0  0  0  0  0  0  0  0  0  0  0  0
  -18.8890  -12.1040   33.1530 C   0  0  0  0  0  0  0  0  0  0  0  0
  -17.4570  -12.5500   33.1510 O   0  0  0  0  0  0  0  0  0  0  0  0
  -19.4200  -11.2820   32.0160 N   0  0  0  0  0  0  0  0  0  0  0  0
  -20.7310  -12.1890   34.2920 H   0  0  0  0  0  0  0  0  0  0  0  0
  -20.3600  -10.9890   32.0180 H   0  0  0  0  0  0  0  0  0  0  0  0
  -18.5180  -10.9040   30.8780 C   0  0  0  0  0  0  0  0  0  0  0  0
  -17.3760   -9.9590   31.1080 C   0  0  0  0  0  0  0  0  0  0  0  0
  -16.4750   -9.5820   29.9700 C   0  0  0  0  0  0  0  0  0  0  0  0
  -16.7160  -10.1500   28.6030 C   0  0  0  0  0  0  0  0  0  0  0  0
  -17.8570  -11.0950   28.3730 C   0  0  0  0  0  0  0  0  0  0  0  0
  -18.0980  -11.6630   27.0060 Br  0  0  0  0  0  0  0  0  0  0  0  0
  -18.7590  -11.4720   29.5110 C   0  0  0  0  0  0  0  0  0  0  0  0
  -17.2110   -9.5690   32.0490 H   0  0  0  0  0  0  0  0  0  0  0  0
  -15.6890   -8.9320   30.1280 H   0  0  0  0  0  0  0  0  0  0  0  0
  -16.0950   -9.8900   27.8200 H   0  0  0  0  0  0  0  0  0  0  0  0
  -19.5450  -12.1220   29.3530 H   0  0  0  0  0  0  0  0  0  0  0  0
  -17.6670  -15.7730   38.8360 O   0  0  0  0  0  0  0  0  0  0  0  0
   -8.9840  -17.6240   38.1330 C   0  0  0  0  0  0  0  0  0  0  0  0
   -9.0530  -17.0040   39.4980 O   0  0  0  0  0  0  0  0  0  0  0  0
  -10.2300  -17.7690   37.3120 N   0  0  0  0  0  0  0  0  0  0  0  0
  -11.5460  -17.2940   37.8540 C   0  0  0  0  0  0  0  0  0  0  0  0
  -12.8680  -17.3730   37.1510 N   0  0  0  0  0  0  0  0  0  0  0  0
  -13.9100  -16.7850   38.0580 C   0  0  0  0  0  0  0  0  0  0  0  0
  -15.3890  -16.5940   37.8960 C   0  0  0  0  0  0  0  0  0  0  0  0
  -16.1880  -15.9630   38.9970 C   0  0  0  0  0  0  0  0  0  0  0  0
  -15.5080  -15.5220   40.2600 C   0  0  0  0  0  0  0  0  0  0  0  0
  -14.0290  -15.7120   40.4210 C   0  0  0  0  0  0  0  0  0  0  0  0
  -13.2300  -16.3440   39.3200 C   0  0  0  0  0  0  0  0  0  0  0  0
  -11.7680  -16.6580   39.1940 N   0  0  0  0  0  0  0  0  0  0  0  0
  -10.1840  -18.1760   36.4150 H   0  0  0  0  0  0  0  0  0  0  0  0
  -15.8560  -16.8980   37.0280 H   0  0  0  0  0  0  0  0  0  0  0  0
  -16.0590  -15.0870   41.0170 H   0  0  0  0  0  0  0  0  0  0  0  0
  -13.5620  -15.4080   41.2890 H   0  0  0  0  0  0  0  0  0  0  0  0
  -11.0770  -16.4790   39.8720 H   0  0  0  0  0  0  0  0  0  0  0  0
   -7.6680  -18.0980   37.5910 O   0  0  0  0  0  0  0  0  0  0  0  0
   -6.8760  -19.1290   38.3390 C   0  0  0  0  0  0  0  0  0  0  0  0
   -7.2500  -19.5270   39.2600 H   0  0  0  0  0  0  0  0  0  0  0  0
   -5.9380  -19.4680   37.9520 H   0  0  0  0  0  0  0  0  0  0  0  0
   -6.3110  -19.8650   38.8730 H   0  0  0  0  0  0  0  0  0  0  0  0
  1  6  1  0
  1 28  1  0
  2  1  2  0
  3  4  2  0
  3  2  1  0
  4  5  1  0
  5  9  1  0
  5  6  2  0
  6 10  1  0
  7  2  1  0
  8  3  1  0
 11 15  1  0
 11  4  1  0
 12 11  1  0
 13 12  2  0
 14 16  1  0
 14 12  1  0
 17 18  1  0
 17 14  1  0
 18 24  1  0
 19 25  1  0
 19 18  2  0
 20 19  1  0
 21 20  2  0
 21 23  1  0
 22 21  1  0
 23 17  2  0
 26 20  1  0
 27 23  1  0
 28 36  1  0
 29 30  2  0
 31 32  1  0
 31 29  1  0
 32 40  1  0
 33 32  2  0
 33 34  1  0
 34 39  1  0
 35 34  2  0
 35 36  1  0
 36 37  2  0
 37 38  1  0
 37 43  1  0
 38 44  1  0
 39 38  2  0
 40 39  1  0
 40 45  1  0
 41 31  1  0
 42 35  1  0
 46 29  1  0
 46 47  1  0
 47 50  1  0
 47 48  1  0
 49 47  1  0
M  END
>  <minimizedAffinity>  (302) 
-7.16673803

$$$$

     RDKit          3D

 53 50  0  0  1  0  0  0  0  0999 V2000
  -15.4460  -15.3550   35.4620 C   0  0  0  0  0  0  0  0  0  0  0  0
  -16.7790  -15.1340   34.8090 N   0  0  0  0  0  0  0  0  0  0  0  0
  -17.8440  -15.3790   35.8360 C   0  0  0  0  0  0  0  0  0  0  0  0
  -17.1710  -15.7510   37.1230 N   0  0  0  0  0  2  0  0  0  0  0  0
  -15.6890  -15.7360   36.8930 C   0  0  0  0  0  0  0  0  0  0  0  0
  -18.8620  -15.3050   35.6820 H   0  0  0  0  0  0  0  0  0  0  0  0
  -17.8590  -16.0800   38.4160 C   0  0  0  0  0  1  0  0  0  0  0  0
  -17.9400  -17.5040   38.8800 C   0  0  0  0  0  2  0  0  0  0  0  0
  -18.6280  -17.8330   40.1720 C   0  0  0  0  0  2  0  0  0  0  0  0
  -19.2340  -16.7380   40.9990 N   0  0  0  0  0  1  0  0  0  0  0  0
  -19.1530  -15.3140   40.5340 C   0  0  0  0  0  2  0  0  0  0  0  0
  -18.4650  -14.9860   39.2420 C   0  0  0  0  0  2  0  0  0  0  0  0
  -18.3490  -16.3150   39.3370 H   0  0  0  0  0  0  0  0  0  0  0  0
  -17.5080  -18.2850   38.2910 H   0  0  0  0  0  0  0  0  0  0  0  0
  -17.9980  -18.5200   39.2120 H   0  0  0  0  0  0  0  0  0  0  0  0
  -18.6860  -18.8480   40.5030 H   0  0  0  0  0  0  0  0  0  0  0  0
  -19.1190  -18.0680   41.0930 H   0  0  0  0  0  0  0  0  0  0  0  0
  -19.7020  -16.9630   41.8770 H   0  0  0  0  0  0  0  0  0  0  0  0
  -19.5850  -14.5340   41.1240 H   0  0  0  0  0  0  0  0  0  0  0  0
  -19.0940  -14.2990   40.2020 H   0  0  0  0  0  0  0  0  0  0  0  0
  -18.4070  -13.9690   38.9110 H   0  0  0  0  0  0  0  0  0  0  0  0
  -17.9740  -14.7510   38.3210 H   0  0  0  0  0  0  0  0  0  0  0  0
  -10.0880  -14.8070   32.8180 F   0  0  0  0  0  0  0  0  0  0  0  0
  -11.4280  -14.9440   33.4790 C   0  0  0  0  0  0  0  0  0  0  0  0
  -12.4850  -15.8090   32.8600 C   0  0  0  0  0  0  0  0  0  0  0  0
  -13.8250  -15.9460   33.5210 C   0  0  0  0  0  0  0  0  0  0  0  0
  -14.1070  -15.2180   34.8010 C   0  0  0  0  0  0  0  0  0  0  0  0
  -13.0490  -14.3530   35.4210 C   0  0  0  0  0  0  0  0  0  0  0  0
  -11.7100  -14.2170   34.7600 C   0  0  0  0  0  0  0  0  0  0  0  0
  -12.2910  -16.3100   31.9780 H   0  0  0  0  0  0  0  0  0  0  0  0
  -14.5520  -16.5410   33.0940 H   0  0  0  0  0  0  0  0  0  0  0  0
  -13.2430  -13.8530   36.3030 H   0  0  0  0  0  0  0  0  0  0  0  0
  -10.9820  -13.6220   35.1870 H   0  0  0  0  0  0  0  0  0  0  0  0
  -14.6340  -16.0470   37.9130 C   0  0  0  0  0  3  0  0  0  0  0  0
  -14.7430  -15.4860   39.3000 C   0  0  0  0  0  0  0  0  0  0  0  0
  -13.6870  -15.7980   40.3200 C   0  0  0  0  0  0  0  0  0  0  0  0
  -12.5240  -16.6700   39.9520 N   0  0  0  0  0  0  0  0  0  0  0  0
  -12.4150  -17.2300   38.5650 C   0  0  0  0  0  0  0  0  0  0  0  0
  -13.4700  -16.9190   37.5460 N   0  0  0  0  0  0  0  0  0  0  0  0
  -15.5440  -14.8860   39.5530 H   0  0  0  0  0  0  0  0  0  0  0  0
  -13.7630  -15.4120   41.2740 H   0  0  0  0  0  0  0  0  0  0  0  0
  -11.2510  -18.1020   38.1980 O   0  0  0  0  0  0  0  0  0  0  0  0
   -9.8520  -17.5740   38.3150 C   0  0  0  0  0  0  0  0  0  0  0  0
   -9.5550  -16.1490   37.9540 C   0  0  0  0  0  0  0  0  0  0  0  0
   -8.1570  -15.6210   38.0710 C   0  0  0  0  0  0  0  0  0  0  0  0
   -7.0540  -16.5180   38.5500 C   0  0  0  0  0  0  0  0  0  0  0  0
   -7.3500  -17.9440   38.9110 C   0  0  0  0  0  0  0  0  0  0  0  0
   -8.7500  -18.4720   38.7940 C   0  0  0  0  0  0  0  0  0  0  0  0
  -10.3140  -15.5320   37.6250 H   0  0  0  0  0  0  0  0  0  0  0  0
   -7.9520  -14.6400   37.8220 H   0  0  0  0  0  0  0  0  0  0  0  0
   -6.0920  -16.1560   38.6310 H   0  0  0  0  0  0  0  0  0  0  0  0
   -6.5920  -18.5610   39.2410 H   0  0  0  0  0  0  0  0  0  0  0  0
   -8.9530  -19.4530   39.0430 H   0  0  0  0  0  0  0  0  0  0  0  0
  1  5  2  0
  2  1  1  0
  2  3  2  0
  3  4  1  0
  5  4  1  0
  6  3  1  0
  7 13  1  0
  8 15  1  0
  9 16  1  0
  9 17  1  0
 10 18  1  0
 11 19  1  0
 14  8  1  0
 20 11  1  0
 21 12  1  0
 22 12  1  0
 23 24  1  0
 24 29  1  0
 25 24  2  0
 25 26  1  0
 26 27  2  0
 27 28  1  0
 27  1  1  0
 28 32  1  0
 29 33  1  0
 29 28  2  0
 30 25  1  0
 31 26  1  0
 34  5  1  0
 34 35  1  0
 35 40  1  0
 35 36  2  0
 36 41  1  0
 37 36  1  0
 38 37  2  0
 39 34  1  0
 39 38  2  0
 42 43  1  0
 42 38  1  0
 43 48  1  0
 44 45  1  0
 44 43  2  0
 45 46  2  0
 46 51  1  0
 46 47  1  0
 47 52  1  0
 48 47  2  0
 48 53  1  0
 49 44  1  0
 50 45  1  0
M  END
>  <minimizedAffinity>  (303) 
-9.54895687

$$$$

     RDKit          3D

 37 34  0  0  1  0  0  0  0  0999 V2000
   -9.6290  -17.3560   36.9490 C   0  0  0  0  0  1  0  0  0  0  0  0
   -9.1190  -17.0810   35.5650 N   0  0  0  0  0  1  0  0  0  0  0  0
  -10.1340  -16.2320   34.8580 N   0  0  0  0  0  0  0  0  0  0  0  0
  -10.1700  -15.6540   33.4740 N   0  0  0  0  0  2  0  0  0  0  0  0
  -11.3430  -14.8260   33.0380 C   0  0  0  0  0  0  0  0  0  0  0  0
  -12.4790  -14.5770   33.9850 C   0  0  0  0  0  0  0  0  0  0  0  0
  -12.4430  -15.1550   35.3680 C   0  0  0  0  0  0  0  0  0  0  0  0
  -11.2700  -15.9820   35.8050 C   0  0  0  0  0  0  0  0  0  0  0  0
  -10.9580  -16.6770   37.0980 C   0  0  0  0  0  3  0  0  0  0  0  0
  -11.3680  -14.4290   32.0850 H   0  0  0  0  0  0  0  0  0  0  0  0
  -13.2860  -14.0080   33.6840 H   0  0  0  0  0  0  0  0  0  0  0  0
  -13.2240  -14.9830   36.0200 H   0  0  0  0  0  0  0  0  0  0  0  0
  -11.8230  -16.6900   38.3220 C   0  0  0  0  0  0  0  0  0  0  0  0
  -11.3620  -16.0050   39.5740 C   0  0  0  0  0  0  0  0  0  0  0  0
  -12.2270  -16.0180   40.7990 C   0  0  0  0  0  3  0  0  0  0  0  0
  -13.5540  -16.7170   40.7730 N   0  0  0  0  0  0  0  0  0  0  0  0
  -14.0150  -17.4030   39.5210 C   0  0  0  0  0  0  0  0  0  0  0  0
  -15.3410  -18.1030   39.4940 N   0  0  0  0  0  2  0  0  0  0  0  0
  -13.1490  -17.3900   38.2960 N   0  0  0  0  0  0  0  0  0  0  0  0
  -10.4490  -15.5230   39.5920 H   0  0  0  0  0  0  0  0  0  0  0  0
  -11.9090  -15.5460   41.6600 H   0  0  0  0  0  0  0  0  0  0  0  0
  -15.6450  -18.5530   38.6730 H   0  0  0  0  0  0  0  0  0  0  0  0
  -16.2070  -18.1170   40.7190 C   0  0  0  0  0 15  0  0  0  0  0  0
  -17.0320  -17.3850   41.7360 C   0  0  0  0  0  3  0  0  0  0  0  0
  -16.8810  -18.8740   41.8250 C   0  0  0  0  0  2  0  0  0  0  0  0
  -16.8250  -18.1270   41.5930 H   0  0  0  0  0  0  0  0  0  0  0  0
  -17.4340  -16.4690   42.1170 H   0  0  0  0  0  0  0  0  0  0  0  0
  -17.6010  -17.6690   42.5960 H   0  0  0  0  0  0  0  0  0  0  0  0
  -17.0970  -19.7990   42.3170 H   0  0  0  0  0  0  0  0  0  0  0  0
  -16.3680  -19.6180   41.2520 H   0  0  0  0  0  0  0  0  0  0  0  0
   -8.9310  -18.1670   38.0000 C   0  0  0  0  0  3  0  0  0  0  0  0
   -9.2940  -19.1420   38.2520 H   0  0  0  0  0  0  0  0  0  0  0  0
   -9.7920  -18.5630   37.5020 H   0  0  0  0  0  0  0  0  0  0  0  0
   -7.7240  -17.6130   38.6970 C   0  0  0  0  0  0  0  0  0  0  0  0
   -7.2260  -18.1910   39.4470 H   0  0  0  0  0  0  0  0  0  0  0  0
   -7.3610  -16.6380   38.4450 H   0  0  0  0  0  0  0  0  0  0  0  0
   -6.8630  -17.2170   39.1940 H   0  0  0  0  0  0  0  0  0  0  0  0
  3  2  1  0
  3  8  1  0
  4  3  1  0
  5  4  1  0
  5  6  2  0
  6  7  1  0
  7  8  2  0
  7 12  1  0
  8  9  1  0
  9  1  1  0
  9 13  1  0
 10  5  1  0
 11  6  1  0
 13 14  2  0
 14 20  1  0
 14 15  1  0
 15 21  1  0
 16 15  1  0
 17 16  2  0
 18 17  1  0
 19 13  1  0
 19 17  2  0
 22 18  1  0
 24 27  1  0
 24 28  1  0
 25 29  1  0
 26 24  1  0
 30 25  1  0
 31 32  1  0
 31 34  1  0
 33 31  1  0
 34 37  1  0
 34 35  1  0
 36 34  1  0
M  END
>  <minimizedAffinity>  (304) 
-9.28426361

$$$$

     RDKit          3D

 40 38  0  0  1  0  0  0  0  0999 V2000
  -14.8160  -16.9730   37.0920 N   0  0  0  0  0  0  0  0  0  0  0  0
  -14.2180  -15.6090   36.9090 C   0  0  0  0  0  0  0  0  0  0  0  0
  -14.6700  -14.4700   37.7750 O   0  0  0  0  0  0  0  0  0  0  0  0
  -14.5200  -17.7210   36.5240 H   0  0  0  0  0  0  0  0  0  0  0  0
  -17.2870  -16.7240   38.0800 C   0  0  0  0  0  0  0  0  0  0  0  0
  -15.8650  -17.1970   38.1400 C   0  0  0  0  0  3  0  0  0  0  0  0
  -15.6770  -17.9350   39.4330 S   0  0  0  0  0  0  0  0  0  0  0  0
  -16.9820  -17.9170   40.1710 C   0  0  0  0  0  1  0  0  0  0  0  0
  -17.9780  -17.1690   39.3340 C   0  0  0  0  0  3  0  0  0  0  0  0
  -19.3840  -16.9900   39.8240 C   0  0  0  0  0  3  0  0  0  0  0  0
  -19.7950  -17.5580   41.1500 C   0  0  0  0  0  2  0  0  0  0  0  0
  -18.7990  -18.3070   41.9860 C   0  0  0  0  0  2  0  0  0  0  0  0
  -17.3930  -18.4860   41.4960 C   0  0  0  0  0  2  0  0  0  0  0  0
  -20.0940  -16.4560   39.2280 H   0  0  0  0  0  0  0  0  0  0  0  0
  -20.3880  -16.8620   40.1740 H   0  0  0  0  0  0  0  0  0  0  0  0
  -20.7980  -17.4300   41.4990 H   0  0  0  0  0  0  0  0  0  0  0  0
  -20.0880  -17.9640   42.0960 H   0  0  0  0  0  0  0  0  0  0  0  0
  -19.0930  -18.7120   42.9320 H   0  0  0  0  0  0  0  0  0  0  0  0
  -18.0890  -18.8400   42.5820 H   0  0  0  0  0  0  0  0  0  0  0  0
  -16.6830  -19.0200   42.0930 H   0  0  0  0  0  0  0  0  0  0  0  0
  -16.3900  -18.6140   41.1480 H   0  0  0  0  0  0  0  0  0  0  0  0
  -18.5330  -15.1620   35.8410 N   0  0  0  0  0  1  0  0  0  0  0  0
  -17.9100  -15.9430   36.9600 C   0  0  0  0  0  2  0  0  0  0  0  0
  -13.1690  -15.3840   35.8610 C   0  0  0  0  0  0  0  0  0  0  0  0
  -13.5010  -14.6080   34.6220 C   0  0  0  0  0  0  0  0  0  0  0  0
  -12.4520  -14.3830   33.5740 C   0  0  0  0  0  0  0  0  0  0  0  0
  -11.0710  -14.9350   33.7650 C   0  0  0  0  0  0  0  0  0  0  0  0
  -10.0210  -14.7100   32.7170 F   0  0  0  0  0  0  0  0  0  0  0  0
  -10.7380  -15.7120   35.0040 C   0  0  0  0  0  0  0  0  0  0  0  0
   -9.3570  -16.2640   35.1960 C   0  0  0  0  0  0  0  0  0  0  0  0
   -9.0250  -17.0410   36.4350 C   0  0  0  0  0  0  0  0  0  0  0  0
  -10.0740  -17.2650   37.4830 C   0  0  0  0  0  0  0  0  0  0  0  0
  -11.4550  -16.7130   37.2920 C   0  0  0  0  0  0  0  0  0  0  0  0
  -11.7880  -15.9360   36.0520 C   0  0  0  0  0  0  0  0  0  0  0  0
  -14.4520  -14.2280   34.4900 H   0  0  0  0  0  0  0  0  0  0  0  0
  -12.6810  -13.8480   32.7210 H   0  0  0  0  0  0  0  0  0  0  0  0
   -8.6350  -16.1090   34.4740 H   0  0  0  0  0  0  0  0  0  0  0  0
   -8.0740  -17.4210   36.5670 H   0  0  0  0  0  0  0  0  0  0  0  0
   -9.8450  -17.8000   38.3360 H   0  0  0  0  0  0  0  0  0  0  0  0
  -12.1770  -16.8680   38.0130 H   0  0  0  0  0  0  0  0  0  0  0  0
  1  6  1  0
  2  1  1  0
  2  3  2  0
  4  1  1  0
  5  9  2  0
  6  5  1  0
  6  7  1  0
  7  8  1  0
  9 10  1  0
 10 15  1  0
 11 16  1  0
 11 17  1  0
 12 19  1  0
 12 18  1  0
 13 20  1  0
 14 10  1  0
 21 13  1  0
 22 23  1  0
 23  5  1  0
 24 34  1  0
 24  2  1  0
 25 24  2  0
 26 27  2  0
 26 25  1  0
 27 29  1  0
 28 27  1  0
 29 30  2  0
 29 34  1  0
 30 31  1  0
 31 38  1  0
 31 32  2  0
 32 39  1  0
 33 32  1  0
 33 40  1  0
 34 33  2  0
 35 25  1  0
 36 26  1  0
 37 30  1  0
M  END
>  <minimizedAffinity>  (305) 
-8.49191856

$$$$

     RDKit          3D

 36 37  0  0  0  0  0  0  0  0999 V2000
  -13.9170  -15.1050   33.6990 O   0  0  0  0  0  0  0  0  0  0  0  0
  -14.6940  -15.0940   34.9820 C   0  0  0  0  0  0  0  0  0  0  0  0
  -16.1170  -14.6480   35.1460 N   0  0  0  0  0  0  0  0  0  0  0  0
  -16.4870  -14.8050   36.5920 C   0  0  0  0  0  0  0  0  0  0  0  0
  -17.8170  -14.4770   37.2020 O   0  0  0  0  0  0  0  0  0  0  0  0
  -15.2930  -15.3480   37.3200 C   0  0  0  0  0  0  0  0  0  0  0  0
  -14.1850  -15.5260   36.3240 C   0  0  0  0  0  0  0  0  0  0  0  0
  -16.7040  -14.3120   34.4330 H   0  0  0  0  0  0  0  0  0  0  0  0
  -15.2200  -15.6570   38.7850 N   0  0  0  0  0  0  0  0  0  0  0  0
  -14.1970  -15.1330   39.7490 C   0  0  0  0  0  3  0  0  0  0  0  0
  -14.5020  -15.6970   41.1040 C   0  0  0  0  0  2  0  0  0  0  0  0
  -15.7150  -16.5710   40.9790 C   0  0  0  0  0  3  0  0  0  0  0  0
  -16.4720  -17.3860   41.9850 C   0  0  0  0  0  0  0  0  0  0  0  0
  -17.6740  -18.1770   41.5580 C   0  0  0  0  0  0  0  0  0  0  0  0
  -18.1170  -18.1520   40.1260 C   0  0  0  0  0  0  0  0  0  0  0  0
  -17.3600  -17.3370   39.1200 C   0  0  0  0  0  0  0  0  0  0  0  0
  -16.1590  -16.5470   39.5470 C   0  0  0  0  0  0  0  0  0  0  0  0
  -13.3900  -14.4710   39.5100 H   0  0  0  0  0  0  0  0  0  0  0  0
  -13.5480  -14.8480   40.5510 H   0  0  0  0  0  0  0  0  0  0  0  0
  -13.9520  -15.5100   42.0020 H   0  0  0  0  0  0  0  0  0  0  0  0
  -14.8490  -16.1770   41.9950 H   0  0  0  0  0  0  0  0  0  0  0  0
  -16.1670  -17.4030   42.9710 H   0  0  0  0  0  0  0  0  0  0  0  0
  -18.1950  -18.7380   42.2500 H   0  0  0  0  0  0  0  0  0  0  0  0
  -18.9440  -18.6960   39.8320 H   0  0  0  0  0  0  0  0  0  0  0  0
  -17.6650  -17.3200   38.1340 H   0  0  0  0  0  0  0  0  0  0  0  0
  -12.8080  -16.0460   36.6210 C   0  0  0  0  0  0  0  0  0  0  0  0
  -11.6160  -15.4340   35.9480 C   0  0  0  0  0  0  0  0  0  0  0  0
  -10.2400  -15.9540   36.2440 C   0  0  0  0  0  0  0  0  0  0  0  0
  -10.0580  -17.0850   37.2120 C   0  0  0  0  0  0  0  0  0  0  0  0
   -8.6820  -17.6040   37.5080 Cl  0  0  0  0  0  0  0  0  0  0  0  0
  -11.2510  -17.6960   37.8850 C   0  0  0  0  0  0  0  0  0  0  0  0
  -12.6270  -17.1760   37.5890 C   0  0  0  0  0  0  0  0  0  0  0  0
  -11.7400  -14.6560   35.2820 H   0  0  0  0  0  0  0  0  0  0  0  0
   -9.4190  -15.5330   35.7810 H   0  0  0  0  0  0  0  0  0  0  0  0
  -11.1250  -18.4730   38.5510 H   0  0  0  0  0  0  0  0  0  0  0  0
  -13.4480  -17.5960   38.0510 H   0  0  0  0  0  0  0  0  0  0  0  0
  1  2  2  0
  2  3  1  0
  2  7  1  0
  3  4  1  0
  4  5  2  0
  4  6  1  0
  6  9  1  0
  7 26  1  0
  7  6  2  0
  8  3  1  0
  9 17  1  0
  9 10  1  0
 10 19  1  0
 11 21  1  0
 11 20  1  0
 12 13  1  0
 13 22  1  0
 14 13  2  0
 14 23  1  0
 15 14  1  0
 16 17  1  0
 16 15  2  0
 17 12  2  0
 18 10  1  0
 24 15  1  0
 25 16  1  0
 26 32  1  0
 27 28  1  0
 27 26  2  0
 28 29  2  0
 29 30  1  0
 29 31  1  0
 31 35  1  0
 32 31  2  0
 32 36  1  0
 33 27  1  0
 34 28  1  0
M  END
>  <minimizedAffinity>  (306) 
-7.95824432

$$$$

     RDKit          3D

 53 48  0  0  0  0  0  0  0  0999 V2000
  -16.7440  -15.7570   37.3870 C   0  0  0  0  0  0  0  0  0  0  0  0
  -18.2260  -15.5750   37.2440 C   0  0  0  0  0  0  0  0  0  0  0  0
  -18.8080  -15.1760   35.9200 C   0  0  0  0  0  0  0  0  0  0  0  0
  -17.9090  -14.9610   34.7400 C   0  0  0  0  0  0  0  0  0  0  0  0
  -16.4270  -15.1430   34.8820 C   0  0  0  0  0  0  0  0  0  0  0  0
  -15.8440  -15.5420   36.2060 C   0  0  0  0  0  0  0  0  0  0  0  0
  -18.8450  -15.7230   38.0560 H   0  0  0  0  0  0  0  0  0  0  0  0
  -19.8280  -15.0510   35.8220 H   0  0  0  0  0  0  0  0  0  0  0  0
  -15.8080  -14.9950   34.0700 H   0  0  0  0  0  0  0  0  0  0  0  0
  -14.3630  -15.7250   36.3490 C   0  0  0  0  0  0  0  0  0  0  0  0
  -13.8210  -16.7200   37.3320 C   0  0  0  0  0  0  0  0  0  0  0  0
  -12.3390  -16.9030   37.4750 C   0  0  0  0  0  0  0  0  0  0  0  0
  -11.3990  -16.0900   36.6350 C   0  0  0  0  0  0  0  0  0  0  0  0
  -11.9400  -15.0940   35.6530 C   0  0  0  0  0  0  0  0  0  0  0  0
  -13.4220  -14.9120   35.5100 C   0  0  0  0  0  0  0  0  0  0  0  0
  -14.4680  -17.2790   37.9100 H   0  0  0  0  0  0  0  0  0  0  0  0
  -11.9660  -17.5880   38.1510 H   0  0  0  0  0  0  0  0  0  0  0  0
  -11.2930  -14.5350   35.0750 H   0  0  0  0  0  0  0  0  0  0  0  0
  -13.7950  -14.2270   34.8330 H   0  0  0  0  0  0  0  0  0  0  0  0
   -9.9170  -16.2730   36.7780 C   0  0  0  0  0  0  0  0  0  0  0  0
   -9.1020  -16.7380   35.6080 O   0  0  0  0  0  0  0  0  0  0  0  0
   -9.2500  -15.9910   38.0920 N   0  0  0  0  0  4  0  0  0  0  0  0
   -9.7840  -15.6860   38.8590 H   0  0  0  0  0  0  0  0  0  0  0  0
   -7.7680  -16.1730   38.2350 C   0  0  0  0  0  0  0  0  0  0  0  0
   -7.1050  -15.3630   38.0130 H   0  0  0  0  0  0  0  0  0  0  0  0
   -6.7100  -16.3040   38.3370 H   0  0  0  0  0  0  0  0  0  0  0  0
   -7.2150  -17.4920   38.6890 C   0  0  0  0  0 15  0  0  0  0  0  0
   -6.3390  -18.2840   39.6130 C   0  0  0  0  0  3  0  0  0  0  0  0
   -7.1340  -18.9830   38.5510 C   0  0  0  0  0  2  0  0  0  0  0  0
   -6.8210  -18.4320   39.0130 H   0  0  0  0  0  0  0  0  0  0  0  0
   -5.6500  -18.3220   40.4320 H   0  0  0  0  0  0  0  0  0  0  0  0
   -6.1040  -19.3220   39.7300 H   0  0  0  0  0  0  0  0  0  0  0  0
   -7.4280  -19.8850   38.0570 H   0  0  0  0  0  0  0  0  0  0  0  0
   -7.8140  -18.6700   37.7860 H   0  0  0  0  0  0  0  0  0  0  0  0
  -16.1620  -16.1560   38.7110 C   0  0  0  0  0  0  0  0  0  0  0  0
  -16.8040  -16.3100   39.5530 H   0  0  0  0  0  0  0  0  0  0  0  0
  -15.1040  -16.2860   38.8130 H   0  0  0  0  0  0  0  0  0  0  0  0
  -15.7460  -16.4400   39.6550 H   0  0  0  0  0  0  0  0  0  0  0  0
  -18.4910  -14.5620   33.4160 C   0  0  0  0  0  0  0  0  0  0  0  0
  -19.4240  -15.4910   32.6970 O   0  0  0  0  0  0  0  0  0  0  0  0
  -18.1400  -13.2360   32.8110 N   0  0  0  0  0  0  0  0  0  0  0  0
  -17.5270  -12.6260   33.2820 H   0  0  0  0  0  0  0  0  0  0  0  0
  -18.7220  -12.8370   31.4870 C   0  0  0  0  0  1  0  0  0  0  0  0
  -19.7950  -11.8870   31.0430 C   0  0  0  0  0  2  0  0  0  0  0  0
  -19.5450  -12.2740   29.6150 C   0  0  0  0  0  3  0  0  0  0  0  0
  -18.4730  -13.2240   30.0590 C   0  0  0  0  0  2  0  0  0  0  0  0
  -19.1370  -12.5530   30.5430 H   0  0  0  0  0  0  0  0  0  0  0  0
  -20.4620  -11.2130   31.5390 H   0  0  0  0  0  0  0  0  0  0  0  0
  -20.4330  -11.3670   30.3600 H   0  0  0  0  0  0  0  0  0  0  0  0
  -19.9610  -11.9900   28.6710 H   0  0  0  0  0  0  0  0  0  0  0  0
  -19.0890  -12.7880   28.7950 H   0  0  0  0  0  0  0  0  0  0  0  0
  -17.8060  -13.8980   29.5630 H   0  0  0  0  0  0  0  0  0  0  0  0
  -17.8340  -13.7440   30.7420 H   0  0  0  0  0  0  0  0  0  0  0  0
  1 35  1  0
  2  1  1  0
  2  7  1  0
  3  2  2  0
  4  5  2  0
  4  3  1  0
  5  6  1  0
  6 10  1  0
  6  1  2  0
  8  3  1  0
  9  5  1  0
 10 11  1  0
 11 12  2  0
 11 16  1  0
 12 17  1  0
 13 20  1  0
 13 12  1  0
 14 13  2  0
 15 14  1  0
 15 10  2  0
 18 14  1  0
 19 15  1  0
 20 22  1  0
 21 20  2  0
 22 24  2  0
 22 23  1  0
 24 26  1  0
 25 24  1  0
 28 32  1  0
 28 31  1  0
 30 28  1  0
 33 29  1  0
 34 29  1  0
 35 37  1  0
 35 36  1  0
 35 38  1  0
 39  4  1  0
 40 39  2  0
 41 42  1  0
 41 39  1  0
 43 41  1  0
 44 48  1  0
 45 47  1  0
 46 53  1  0
 49 44  1  0
 50 45  1  0
 51 45  1  0
 52 46  1  0
M  END
>  <minimizedAffinity>  (307) 
-9.83921432

$$$$

     RDKit          3D

 64 61  0  0  0  0  0  0  0  0999 V2000
  -15.3810  -13.1860   31.9820 C   0  0  0  0  0  0  0  0  0  0  0  0
  -15.5870  -12.9800   30.5110 C   0  0  0  0  0  0  0  0  0  0  0  0
  -16.9280  -12.3350   30.3170 C   0  0  0  0  0  0  0  0  0  0  0  0
  -17.6620  -11.8980   29.0840 N   0  0  0  0  0  0  0  0  0  0  0  0
  -19.0190  -11.2690   29.2030 C   0  0  0  0  0  0  0  0  0  0  0  0
  -19.6400  -11.0760   30.5550 N   0  0  0  0  0  0  0  0  0  0  0  0
  -18.9060  -11.5130   31.7870 C   0  0  0  0  0  0  0  0  0  0  0  0
  -17.5490  -12.1420   31.6690 C   0  0  0  0  0  0  0  0  0  0  0  0
  -16.5930  -12.6680   32.6980 S   0  0  0  0  0  0  0  0  0  0  0  0
  -14.9240  -13.2370   29.7640 H   0  0  0  0  0  0  0  0  0  0  0  0
  -19.5240  -10.9680   28.3550 H   0  0  0  0  0  0  0  0  0  0  0  0
  -12.9670  -14.4170   33.2690 C   0  0  0  0  0  1  0  0  0  0  0  0
  -14.1740  -13.8010   32.6260 C   0  0  0  0  0  2  0  0  0  0  0  0
  -10.0640  -15.6290   35.5440 C   0  0  0  0  0  2  0  0  0  0  0  0
   -9.7380  -16.3310   34.2600 C   0  0  0  0  0  2  0  0  0  0  0  0
  -10.7850  -15.9630   33.2500 N   0  0  0  0  0  1  0  0  0  0  0  0
  -11.7590  -15.0330   33.9120 C   0  0  0  0  0  2  0  0  0  0  0  0
  -11.3140  -14.8260   35.3300 C   0  0  0  0  0  3  0  0  0  0  0  0
   -9.1910  -16.2480   35.5370 H   0  0  0  0  0  0  0  0  0  0  0  0
   -8.9050  -16.9810   34.0920 H   0  0  0  0  0  0  0  0  0  0  0  0
   -9.6430  -16.7570   33.2820 H   0  0  0  0  0  0  0  0  0  0  0  0
  -10.8280  -16.2880   32.2840 H   0  0  0  0  0  0  0  0  0  0  0  0
  -11.9420  -15.2800   32.8880 H   0  0  0  0  0  0  0  0  0  0  0  0
  -11.8010  -14.2140   36.0590 H   0  0  0  0  0  0  0  0  0  0  0  0
  -10.8690  -14.7830   36.3020 H   0  0  0  0  0  0  0  0  0  0  0  0
   -9.2800  -15.7140   36.8200 O   0  0  0  0  0  0  0  0  0  0  0  0
   -7.7940  -17.7360   37.4940 N   0  0  0  0  0  1  0  0  0  0  0  0
   -9.1200  -17.0320   37.5150 C   0  0  0  0  0  2  0  0  0  0  0  0
  -10.2840  -17.6490   38.2330 O   0  0  0  0  0  1  0  0  0  0  0  0
   -7.0300  -17.3310   37.0230 H   0  0  0  0  0  0  0  0  0  0  0  0
   -7.6340  -19.0550   38.1900 C   0  0  0  0  0  3  0  0  0  0  0  0
   -8.4030  -19.7940   38.1180 H   0  0  0  0  0  0  0  0  0  0  0  0
   -8.5180  -18.8540   37.6210 H   0  0  0  0  0  0  0  0  0  0  0  0
   -6.3940  -19.3370   38.9870 C   0  0  0  0  0  0  0  0  0  0  0  0
   -6.2800  -20.2780   39.4830 H   0  0  0  0  0  0  0  0  0  0  0  0
   -5.6250  -18.5970   39.0580 H   0  0  0  0  0  0  0  0  0  0  0  0
   -5.5110  -19.5380   39.5550 H   0  0  0  0  0  0  0  0  0  0  0  0
  -19.5270  -11.3200   33.1390 N   0  0  0  0  0  0  0  0  0  0  0  0
  -19.9240  -10.4510   33.3780 H   0  0  0  0  0  0  0  0  0  0  0  0
  -19.5440  -12.4500   34.1250 C   0  0  0  0  0  0  0  0  0  0  0  0
  -19.7780  -13.8540   33.6520 C   0  0  0  0  0  0  0  0  0  0  0  0
  -19.7950  -14.9850   34.6380 C   0  0  0  0  0  0  0  0  0  0  0  0
  -19.5770  -14.7110   36.0970 C   0  0  0  0  0  0  0  0  0  0  0  0
  -19.3430  -13.3070   36.5690 C   0  0  0  0  0  0  0  0  0  0  0  0
  -19.1250  -13.0330   38.0280 Cl  0  0  0  0  0  0  0  0  0  0  0  0
  -19.3260  -12.1760   35.5830 C   0  0  0  0  0  0  0  0  0  0  0  0
  -19.9280  -14.0430   32.6480 H   0  0  0  0  0  0  0  0  0  0  0  0
  -19.9560  -15.9510   34.3130 H   0  0  0  0  0  0  0  0  0  0  0  0
  -19.1650  -11.2100   35.9080 H   0  0  0  0  0  0  0  0  0  0  0  0
  -19.5940  -15.8410   37.0830 O   0  0  0  0  0  0  0  0  0  0  0  0
  -18.5990  -15.8720   38.2050 C   0  0  0  0  0  0  0  0  0  0  0  0
  -18.9220  -15.6970   39.2100 H   0  0  0  0  0  0  0  0  0  0  0  0
  -17.8900  -15.8940   39.0060 H   0  0  0  0  0  0  0  0  0  0  0  0
  -17.1530  -16.1470   37.9180 C   0  0  0  0  0  0  0  0  0  0  0  0
  -16.5660  -17.4880   38.2430 C   0  0  0  0  0  0  0  0  0  0  0  0
  -15.1200  -17.7640   37.9570 C   0  0  0  0  0  0  0  0  0  0  0  0
  -14.2600  -16.6970   37.3450 C   0  0  0  0  0  0  0  0  0  0  0  0
  -14.8470  -15.3560   37.0200 C   0  0  0  0  0  0  0  0  0  0  0  0
  -13.9880  -14.2890   36.4080 F   0  0  0  0  0  0  0  0  0  0  0  0
  -16.2940  -15.0810   37.3060 C   0  0  0  0  0  0  0  0  0  0  0  0
  -17.1570  -18.2220   38.6640 H   0  0  0  0  0  0  0  0  0  0  0  0
  -14.7160  -18.6870   38.1800 H   0  0  0  0  0  0  0  0  0  0  0  0
  -13.2650  -16.8870   37.1470 H   0  0  0  0  0  0  0  0  0  0  0  0
  -16.6980  -14.1570   37.0830 H   0  0  0  0  0  0  0  0  0  0  0  0
  1 13  1  0
  1  9  1  0
  2  1  2  0
  3  2  1  0
  3  8  2  0
  4  5  2  0
  4  3  1  0
  5  6  1  0
  6  7  2  0
  7 38  1  0
  8  7  1  0
  8  9  1  0
 10  2  1  0
 11  5  1  0
 13 12  1  0
 14 26  1  0
 17 18  1  0
 18 24  1  0
 18 25  1  0
 19 14  1  0
 20 15  1  0
 21 15  1  0
 22 16  1  0
 23 17  1  0
 26 28  1  0
 28 29  1  0
 30 27  1  0
 31 34  1  0
 32 31  1  0
 33 31  1  0
 34 36  1  0
 34 35  1  0
 34 37  1  0
 38 39  1  0
 38 40  1  0
 40 46  1  0
 41 40  2  0
 41 42  1  0
 42 43  2  0
 43 44  1  0
 43 50  1  0
 44 45  1  0
 46 49  1  0
 46 44  2  0
 47 41  1  0
 48 42  1  0
 50 51  1  0
 51 53  1  0
 51 52  1  0
 54 51  1  0
 54 55  1  0
 55 61  1  0
 56 62  1  0
 56 55  2  0
 57 56  1  0
 58 60  1  0
 58 57  2  0
 59 58  1  0
 60 54  2  0
 63 57  1  0
 64 60  1  0
M  END
>  <minimizedAffinity>  (308) 
-11.7143879

$$$$

     RDKit          3D

 34 37  0  0  0  0  0  0  0  0999 V2000
  -11.3270  -16.8690   37.5100 N   0  0  0  0  0  0  0  0  0  0  0  0
  -12.5240  -17.4480   38.2030 C   0  0  0  0  0  0  0  0  0  0  0  0
  -13.7530  -16.9620   37.4940 C   0  0  0  0  0  0  0  0  0  0  0  0
  -13.3150  -16.0820   36.3600 C   0  0  0  0  0  0  0  0  0  0  0  0
  -14.0880  -15.3250   35.3210 C   0  0  0  0  0  0  0  0  0  0  0  0
  -13.3620  -14.5110   34.2910 C   0  0  0  0  0  0  0  0  0  0  0  0
  -11.8640  -14.4530   34.3010 C   0  0  0  0  0  0  0  0  0  0  0  0
  -11.0910  -15.2100   35.3400 C   0  0  0  0  0  0  0  0  0  0  0  0
  -11.8170  -16.0240   36.3700 C   0  0  0  0  0  0  0  0  0  0  0  0
  -12.5060  -18.0720   39.0250 H   0  0  0  0  0  0  0  0  0  0  0  0
  -15.1200  -15.3650   35.3140 H   0  0  0  0  0  0  0  0  0  0  0  0
  -13.8940  -13.9910   33.5760 H   0  0  0  0  0  0  0  0  0  0  0  0
  -11.3640  -13.8930   33.5920 H   0  0  0  0  0  0  0  0  0  0  0  0
  -10.0590  -15.1700   35.3470 H   0  0  0  0  0  0  0  0  0  0  0  0
  -15.1700  -17.2970   37.8530 C   0  0  0  0  0  0  0  0  0  0  0  0
  -15.7760  -16.7430   39.1080 C   0  0  0  0  0  0  0  0  0  0  0  0
  -15.0910  -15.8460   40.0970 C   0  0  0  0  0  0  0  0  0  0  0  0
  -13.6810  -15.3460   40.0030 O   0  0  0  0  0  0  0  0  0  0  0  0
  -16.0650  -15.5370   41.1950 N   0  0  0  0  0  0  0  0  0  0  0  0
  -17.3510  -16.2440   40.8860 C   0  0  0  0  0  0  0  0  0  0  0  0
  -18.6630  -16.3050   41.6120 C   0  0  0  0  0  0  0  0  0  0  0  0
  -19.7950  -17.1110   41.0480 C   0  0  0  0  0  0  0  0  0  0  0  0
  -19.6160  -17.8560   39.7590 C   0  0  0  0  0  0  0  0  0  0  0  0
  -18.3060  -17.7960   39.0320 N   0  0  0  0  0  0  0  0  0  0  0  0
  -17.1720  -16.9890   39.5960 C   0  0  0  0  0  0  0  0  0  0  0  0
  -15.7280  -17.9080   37.2370 H   0  0  0  0  0  0  0  0  0  0  0  0
  -15.8900  -14.9710   41.9800 H   0  0  0  0  0  0  0  0  0  0  0  0
  -18.7860  -15.7920   42.4990 H   0  0  0  0  0  0  0  0  0  0  0  0
  -20.6970  -17.1530   41.5470 H   0  0  0  0  0  0  0  0  0  0  0  0
  -20.3960  -18.4110   39.3710 H   0  0  0  0  0  0  0  0  0  0  0  0
   -9.8940  -17.0940   37.8880 C   0  0  0  0  0  0  0  0  0  0  0  0
   -9.1120  -16.6300   37.3230 H   0  0  0  0  0  0  0  0  0  0  0  0
   -9.6520  -17.7180   38.7230 H   0  0  0  0  0  0  0  0  0  0  0  0
   -8.8710  -17.2550   38.1580 H   0  0  0  0  0  0  0  0  0  0  0  0
  1 31  1  0
  1  2  1  0
  2 10  1  0
  3 15  1  0
  3  2  2  0
  4  9  1  0
  4  3  1  0
  5  4  2  0
  6  7  2  0
  6  5  1  0
  7  8  1  0
  8 14  1  0
  8  9  2  0
  9  1  1  0
 11  5  1  0
 12  6  1  0
 13  7  1  0
 15 16  2  0
 16 25  1  0
 16 17  1  0
 17 19  1  0
 18 17  2  0
 19 27  1  0
 20 19  1  0
 20 21  1  0
 21 28  1  0
 22 29  1  0
 22 21  2  0
 23 22  1  0
 24 25  1  0
 24 23  2  0
 25 20  2  0
 26 15  1  0
 30 23  1  0
 31 34  1  0
 31 33  1  0
 32 31  1  0
M  END
>  <minimizedAffinity>  (309) 
-8.12827587

$$$$

     RDKit          3D

 37 39  0  0  0  0  0  0  0  0999 V2000
  -18.6860  -15.7410   37.7500 C   0  0  0  0  0  0  0  0  0  0  0  0
  -19.5560  -15.0530   36.7410 C   0  0  0  0  0  0  0  0  0  0  0  0
  -18.9480  -14.4690   35.5000 C   0  0  0  0  0  0  0  0  0  0  0  0
  -17.4700  -14.5740   35.2680 C   0  0  0  0  0  0  0  0  0  0  0  0
  -16.6000  -15.2630   36.2770 C   0  0  0  0  0  0  0  0  0  0  0  0
  -17.2080  -15.8460   37.5180 C   0  0  0  0  0  0  0  0  0  0  0  0
  -15.1850  -15.2130   35.7810 C   0  0  0  0  0  0  0  0  0  0  0  0
  -13.9850  -15.7820   36.4780 N   0  0  0  0  0  0  0  0  0  0  0  0
  -15.1810  -14.4940   34.4650 C   0  0  0  0  0  0  0  0  0  0  0  0
  -13.9760  -14.2180   33.6150 O   0  0  0  0  0  0  0  0  0  0  0  0
  -16.5930  -14.0990   34.1480 N   0  0  0  0  0  0  0  0  0  0  0  0
  -20.5740  -14.9800   36.9000 H   0  0  0  0  0  0  0  0  0  0  0  0
  -19.5470  -13.9960   34.8050 H   0  0  0  0  0  0  0  0  0  0  0  0
  -16.6090  -16.3200   38.2130 H   0  0  0  0  0  0  0  0  0  0  0  0
  -16.8920  -13.6130   33.3450 H   0  0  0  0  0  0  0  0  0  0  0  0
  -19.2940  -16.3250   38.9910 C   0  0  0  0  0  0  0  0  0  0  0  0
  -20.3490  -16.2500   39.1560 H   0  0  0  0  0  0  0  0  0  0  0  0
  -18.6730  -16.8160   39.7110 H   0  0  0  0  0  0  0  0  0  0  0  0
  -19.7280  -16.7410   39.8760 H   0  0  0  0  0  0  0  0  0  0  0  0
  -12.6260  -15.6550   35.8560 N   0  0  0  0  0  0  0  0  0  0  0  0
  -12.5230  -15.2050   34.9870 H   0  0  0  0  0  0  0  0  0  0  0  0
  -11.4250  -16.2140   36.5590 C   0  0  0  0  0  0  0  0  0  0  0  0
  -10.0500  -15.9550   36.0160 C   0  0  0  0  0  0  0  0  0  0  0  0
   -8.8480  -16.5140   36.7200 C   0  0  0  0  0  0  0  0  0  0  0  0
   -9.0220  -17.3310   37.9650 C   0  0  0  0  0  0  0  0  0  0  0  0
  -10.3960  -17.5900   38.5080 C   0  0  0  0  0  0  0  0  0  0  0  0
  -11.5970  -17.0310   37.8050 C   0  0  0  0  0  0  0  0  0  0  0  0
   -9.9310  -15.3930   35.1590 H   0  0  0  0  0  0  0  0  0  0  0  0
   -7.9040  -16.3360   36.3460 H   0  0  0  0  0  0  0  0  0  0  0  0
  -10.5150  -18.1520   39.3650 H   0  0  0  0  0  0  0  0  0  0  0  0
  -12.5430  -17.2090   38.1780 H   0  0  0  0  0  0  0  0  0  0  0  0
   -7.8200  -17.8910   38.6690 S   0  0  1  0  0  0  0  0  0  0  0  0
   -8.5410  -19.1910   38.8670 O   0  0  0  0  0  0  0  0  0  0  0  0
   -7.1000  -16.5900   38.4710 O   0  0  0  0  0  0  0  0  0  0  0  0
   -6.6190  -18.4490   39.3720 N   0  0  0  0  0  0  0  0  0  0  0  0
   -6.6350  -19.4050   39.7280 H   0  0  0  0  0  0  0  0  0  0  0  0
   -5.7870  -17.8740   39.4950 H   0  0  0  0  0  0  0  0  0  0  0  0
  1 16  1  0
  2 12  1  0
  2  1  2  0
  3  2  1  0
  4  3  2  0
  4  5  1  0
  5  6  2  0
  6  1  1  0
  6 14  1  0
  7  5  1  0
  7  8  2  0
  9  7  1  0
 10  9  2  0
 11  9  1  0
 11  4  1  0
 13  3  1  0
 15 11  1  0
 16 17  1  0
 16 18  1  0
 16 19  1  0
 20  8  1  0
 20 22  1  0
 21 20  1  0
 22 27  1  0
 23 22  2  0
 23 24  1  0
 24 25  2  0
 25 26  1  0
 25 32  1  0
 26 30  1  0
 27 31  1  0
 27 26  2  0
 28 23  1  0
 29 24  1  0
 32 33  2  0
 32 35  1  0
 34 32  2  0
 35 37  1  0
 35 36  1  0
M  END
>  <minimizedAffinity>  (310) 
-8.18195438

$$$$

     RDKit          3D

 68 72  0  0  0  0  0  0  0  0999 V2000
  -10.6610  -16.0820   35.8880 C   0  0  0  0  0  0  0  0  0  0  0  0
   -9.8920  -15.6280   34.6830 C   0  0  0  0  0  0  0  0  0  0  0  0
  -10.6200  -15.0920   33.4860 C   0  0  0  0  0  0  0  0  0  0  0  0
  -12.1180  -15.0110   33.4950 C   0  0  0  0  0  0  0  0  0  0  0  0
  -12.8870  -15.4650   34.7000 C   0  0  0  0  0  0  0  0  0  0  0  0
  -12.1590  -16.0000   35.8970 C   0  0  0  0  0  0  0  0  0  0  0  0
   -8.8610  -15.6840   34.6780 H   0  0  0  0  0  0  0  0  0  0  0  0
  -10.0900  -14.7800   32.6570 H   0  0  0  0  0  0  0  0  0  0  0  0
  -12.6190  -14.6430   32.6710 H   0  0  0  0  0  0  0  0  0  0  0  0
  -12.6880  -16.3130   36.7260 H   0  0  0  0  0  0  0  0  0  0  0  0
   -8.1650  -17.4040   38.5500 N   0  0  0  0  0  0  0  0  0  0  0  0
   -9.4590  -17.4780   39.3050 C   0  0  0  0  0  3  0  0  0  0  0  0
  -10.5510  -16.9910   38.4000 C   0  0  0  0  0  0  0  0  0  0  0  0
   -9.9320  -16.6170   37.0850 C   0  0  0  0  0  0  0  0  0  0  0  0
   -8.4570  -16.8730   37.1780 N   0  0  0  0  0  0  0  0  0  0  0  0
   -9.5770  -17.8050   40.2760 H   0  0  0  0  0  0  0  0  0  0  0  0
  -12.0070  -16.8950   38.7470 C   0  0  0  0  0  0  0  0  0  0  0  0
  -13.0230  -17.6410   37.9350 C   0  0  0  0  0  0  0  0  0  0  0  0
  -14.4790  -17.5450   38.2830 C   0  0  0  0  0  0  0  0  0  0  0  0
  -14.9190  -16.7030   39.4430 N   0  0  0  0  0  0  0  0  0  0  0  0
  -13.9030  -15.9570   40.2560 C   0  0  0  0  0  0  0  0  0  0  0  0
  -14.0360  -15.0550   41.4470 N   0  0  0  0  0  0  0  0  0  0  0  0
  -12.6620  -14.5930   41.8360 C   0  0  0  0  0  0  0  0  0  0  0  0
  -11.6810  -15.2100   40.8850 C   0  0  0  0  0  0  0  0  0  0  0  0
  -12.4470  -16.0530   39.9080 C   0  0  0  0  0  0  0  0  0  0  0  0
  -12.7210  -18.2210   37.1370 H   0  0  0  0  0  0  0  0  0  0  0  0
  -15.1780  -18.0590   37.7240 H   0  0  0  0  0  0  0  0  0  0  0  0
  -14.8770  -14.8090   41.8950 H   0  0  0  0  0  0  0  0  0  0  0  0
  -12.4330  -13.9620   42.6190 H   0  0  0  0  0  0  0  0  0  0  0  0
  -10.6570  -15.0780   40.8990 H   0  0  0  0  0  0  0  0  0  0  0  0
   -6.8140  -17.7950   39.0750 C   0  0  0  0  0  3  0  0  0  0  0  0
   -6.2030  -17.0700   39.5710 H   0  0  0  0  0  0  0  0  0  0  0  0
   -7.1660  -16.7920   39.1970 H   0  0  0  0  0  0  0  0  0  0  0  0
   -6.3210  -19.2010   38.9040 C   0  0  0  0  0  0  0  0  0  0  0  0
   -6.9320  -19.9260   38.4080 H   0  0  0  0  0  0  0  0  0  0  0  0
   -5.3580  -19.4800   39.2780 H   0  0  0  0  0  0  0  0  0  0  0  0
   -5.9690  -20.2040   38.7820 H   0  0  0  0  0  0  0  0  0  0  0  0
  -14.3850  -15.3830   34.7080 N   0  0  0  0  0  0  0  0  0  0  0  0
  -15.0770  -14.2400   34.0260 C   0  0  0  0  0  0  0  0  0  0  0  0
  -14.2720  -13.1790   33.3370 O   0  0  0  0  0  0  0  0  0  0  0  0
  -16.5750  -14.1590   34.0340 N   0  0  0  0  0  0  0  0  0  0  0  0
  -14.9140  -16.0800   35.1600 H   0  0  0  0  0  0  0  0  0  0  0  0
  -17.1040  -14.8550   34.4870 H   0  0  0  0  0  0  0  0  0  0  0  0
  -17.2680  -13.0160   33.3530 C   0  0  0  0  0  0  0  0  0  0  0  0
  -18.5360  -12.4590   33.9270 C   0  0  0  0  0  0  0  0  0  0  0  0
  -19.2290  -11.3160   33.2450 C   0  0  0  0  0  0  0  0  0  0  0  0
  -18.6530  -10.7300   31.9900 C   0  0  0  0  0  0  0  0  0  0  0  0
  -17.3840  -11.2880   31.4170 C   0  0  0  0  0  0  0  0  0  0  0  0
  -16.6910  -12.4310   32.0980 C   0  0  0  0  0  0  0  0  0  0  0  0
  -18.9330  -12.8610   34.7900 H   0  0  0  0  0  0  0  0  0  0  0  0
  -20.1020  -10.9320   33.6400 H   0  0  0  0  0  0  0  0  0  0  0  0
  -16.9870  -10.8850   30.5530 H   0  0  0  0  0  0  0  0  0  0  0  0
  -15.8180  -12.8140   31.7030 H   0  0  0  0  0  0  0  0  0  0  0  0
  -19.3450   -9.5870   31.3090 O   0  0  0  0  0  0  0  0  0  0  0  0
  -19.5390   -9.6070   29.8220 C   0  0  0  0  0  0  0  0  0  0  0  0
  -19.8670   -8.7250   29.3140 H   0  0  0  0  0  0  0  0  0  0  0  0
  -19.6780   -9.6220   28.7610 H   0  0  0  0  0  0  0  0  0  0  0  0
  -19.2740  -10.8640   29.0470 C   0  0  0  0  0  0  0  0  0  0  0  0
  -18.4990  -10.8060   27.7650 C   0  0  0  0  0  0  0  0  0  0  0  0
  -18.2330  -12.0630   26.9910 C   0  0  0  0  0  0  0  0  0  0  0  0
  -18.7440  -13.3790   27.4990 C   0  0  0  0  0  0  0  0  0  0  0  0
  -19.5200  -13.4370   28.7810 C   0  0  0  0  0  0  0  0  0  0  0  0
  -19.7850  -12.1800   29.5560 C   0  0  0  0  0  0  0  0  0  0  0  0
  -18.1470   -9.9010   27.4150 H   0  0  0  0  0  0  0  0  0  0  0  0
  -17.7000  -12.0230   26.1080 H   0  0  0  0  0  0  0  0  0  0  0  0
  -18.5610  -14.2440   26.9660 H   0  0  0  0  0  0  0  0  0  0  0  0
  -19.8710  -14.3430   29.1310 H   0  0  0  0  0  0  0  0  0  0  0  0
  -20.3180  -12.2210   30.4380 H   0  0  0  0  0  0  0  0  0  0  0  0
  1  6  1  0
  1 14  1  0
  2  1  2  0
  3  4  2  0
  3  2  1  0
  4  5  1  0
  5 38  1  0
  5  6  2  0
  6 10  1  0
  7  2  1  0
  8  3  1  0
  9  4  1  0
 11 12  1  0
 12 16  1  0
 13 17  1  0
 13 12  1  0
 14 15  1  0
 14 13  2  0
 15 11  2  0
 17 25  1  0
 18 19  1  0
 18 17  2  0
 19 20  2  0
 20 21  1  0
 21 22  1  0
 22 23  1  0
 22 28  1  0
 23 29  1  0
 24 30  1  0
 24 23  2  0
 25 21  2  0
 25 24  1  0
 26 18  1  0
 27 19  1  0
 31 33  1  0
 31 32  1  0
 34 31  1  0
 34 36  1  0
 35 34  1  0
 37 34  1  0
 38 42  1  0
 39 41  1  0
 39 38  1  0
 40 39  2  0
 41 43  1  0
 44 45  1  0
 44 41  1  0
 45 50  1  0
 46 51  1  0
 46 45  2  0
 47 46  1  0
 48 47  2  0
 48 49  1  0
 49 44  2  0
 52 48  1  0
 53 49  1  0
 54 47  1  0
 55 54  1  0
 56 55  1  0
 57 55  1  0
 58 63  1  0
 58 55  1  0
 59 58  2  0
 60 61  2  0
 60 59  1  0
 61 62  1  0
 62 67  1  0
 62 63  2  0
 63 68  1  0
 64 59  1  0
 65 60  1  0
 66 61  1  0
M  END
>  <minimizedAffinity>  (311) 
-7.53249502

$$$$

     RDKit          3D

 48 45  0  0  0  0  0  0  0  0999 V2000
  -16.7660  -14.2720   34.4200 C   0  0  0  0  0  0  0  0  0  0  0  0
  -15.3620  -13.8490   34.1030 C   0  0  0  0  0  0  0  0  0  0  0  0
  -15.3990  -13.0190   32.8530 S   0  0  0  0  0  0  0  0  0  0  0  0
  -16.8250  -12.9310   32.3990 C   0  0  0  0  0  0  0  0  0  0  0  0
  -17.6700  -13.7050   33.3670 C   0  0  0  0  0  0  0  0  0  0  0  0
  -19.1530  -13.7930   33.1640 C   0  0  0  0  0  3  0  0  0  0  0  0
  -19.7920  -13.1070   31.9930 C   0  0  0  0  0  2  0  0  0  0  0  0
  -18.9480  -12.3330   31.0250 C   0  0  0  0  0  2  0  0  0  0  0  0
  -17.4640  -12.2450   31.2280 N   0  0  0  0  0  0  0  0  0  0  0  0
  -16.6190  -11.4700   30.2600 C   0  0  0  0  0  3  0  0  0  0  0  0
  -15.1360  -11.3820   30.4630 O   0  0  0  0  0  1  0  0  0  0  0  0
  -19.7560  -14.3460   33.8540 H   0  0  0  0  0  0  0  0  0  0  0  0
  -20.2120  -13.8560   33.0190 H   0  0  0  0  0  0  0  0  0  0  0  0
  -20.8510  -13.1700   31.8480 H   0  0  0  0  0  0  0  0  0  0  0  0
  -20.2480  -12.6180   31.1570 H   0  0  0  0  0  0  0  0  0  0  0  0
  -19.4040  -11.8440   30.1890 H   0  0  0  0  0  0  0  0  0  0  0  0
  -18.3450  -11.7810   30.3340 H   0  0  0  0  0  0  0  0  0  0  0  0
  -17.2580  -10.7840   29.0890 C   0  0  0  0  0 15  0  0  0  0  0  0
  -17.9880   -9.6070   28.5130 C   0  0  0  0  0  2  0  0  0  0  0  0
  -17.6350  -10.7730   27.6370 C   0  0  0  0  0  3  0  0  0  0  0  0
  -17.7140  -10.2950   28.2530 H   0  0  0  0  0  0  0  0  0  0  0  0
  -18.4350   -8.6430   28.6360 H   0  0  0  0  0  0  0  0  0  0  0  0
  -18.3640   -9.3500   27.5440 H   0  0  0  0  0  0  0  0  0  0  0  0
  -17.6450  -11.2480   26.6780 H   0  0  0  0  0  0  0  0  0  0  0  0
  -17.1350  -11.7060   27.7860 H   0  0  0  0  0  0  0  0  0  0  0  0
  -14.1370  -14.1940   34.8960 N   0  0  0  0  0  0  0  0  0  0  0  0
  -13.2640  -15.3370   34.4690 C   0  0  0  0  0  0  0  0  0  0  0  0
  -13.6160  -16.1340   33.2480 O   0  0  0  0  0  0  0  0  0  0  0  0
  -13.9060  -13.6700   35.6980 H   0  0  0  0  0  0  0  0  0  0  0  0
  -12.0380  -15.6820   35.2620 C   0  0  0  0  0  0  0  0  0  0  0  0
  -10.6950  -15.7020   34.5960 C   0  0  0  0  0  0  0  0  0  0  0  0
   -9.4690  -16.0470   35.3890 C   0  0  0  0  0  0  0  0  0  0  0  0
   -9.5870  -16.3720   36.8490 C   0  0  0  0  0  0  0  0  0  0  0  0
  -10.9310  -16.3520   37.5150 C   0  0  0  0  0  0  0  0  0  0  0  0
  -11.0490  -16.6770   38.9740 C   0  0  0  0  0  0  0  0  0  0  0  0
  -12.3930  -16.6580   39.6410 C   0  0  0  0  0  0  0  0  0  0  0  0
  -13.6190  -16.3120   38.8470 C   0  0  0  0  0  0  0  0  0  0  0  0
  -13.5000  -15.9870   37.3880 C   0  0  0  0  0  0  0  0  0  0  0  0
  -12.1570  -16.0070   36.7220 C   0  0  0  0  0  0  0  0  0  0  0  0
  -10.6130  -15.4780   33.5920 H   0  0  0  0  0  0  0  0  0  0  0  0
   -8.5440  -16.0600   34.9310 H   0  0  0  0  0  0  0  0  0  0  0  0
   -8.7440  -16.6090   37.3940 H   0  0  0  0  0  0  0  0  0  0  0  0
  -10.2060  -16.9150   39.5200 H   0  0  0  0  0  0  0  0  0  0  0  0
  -12.4750  -16.8810   40.6450 H   0  0  0  0  0  0  0  0  0  0  0  0
  -14.5430  -16.2990   39.3060 H   0  0  0  0  0  0  0  0  0  0  0  0
  -14.3430  -15.7500   36.8420 H   0  0  0  0  0  0  0  0  0  0  0  0
  -17.6150  -15.9590   36.7510 N   0  0  0  0  0  1  0  0  0  0  0  0
  -17.1900  -15.1160   35.5860 C   0  0  0  0  0  2  0  0  0  0  0  0
  1 48  1  0
  2  1  2  0
  2 26  1  0
  3  2  1  0
  4  3  1  0
  4  5  2  0
  5  1  1  0
  6  5  1  0
  6 12  1  0
  9  4  1  0
 10 11  1  0
 10  9  2  0
 13  6  1  0
 14  7  1  0
 15  7  1  0
 16  8  1  0
 17  8  1  0
 19 22  1  0
 20 25  1  0
 20 21  1  0
 23 19  1  0
 24 20  1  0
 26 29  1  0
 27 26  1  0
 27 30  1  0
 28 27  2  0
 30 39  1  0
 31 30  2  0
 31 32  1  0
 32 33  2  0
 33 42  1  0
 33 34  1  0
 34 35  1  0
 35 43  1  0
 35 36  2  0
 36 44  1  0
 37 45  1  0
 37 36  1  0
 38 37  2  0
 39 38  1  0
 39 34  2  0
 40 31  1  0
 41 32  1  0
 46 38  1  0
 48 47  1  0
M  END
>  <minimizedAffinity>  (312) 
-8.29855347

$$$$

     RDKit          3D

 41 44  0  0  1  0  0  0  0  0999 V2000
  -16.4840  -15.2220   35.8160 N   0  0  0  0  0  0  0  0  0  0  0  0
  -14.9910  -15.0760   35.7910 N   0  0  0  0  0  0  0  0  0  0  0  0
  -14.4470  -15.6570   37.0620 C   0  0  0  0  0  0  0  0  0  0  0  0
  -15.6040  -16.1640   37.8730 C   0  0  0  0  0  0  0  0  0  0  0  0
  -15.6730  -16.8350   39.2120 C   0  0  0  0  0  3  0  0  0  0  0  0
  -17.0020  -17.2360   39.7820 N   0  0  0  0  0  0  0  0  0  0  0  0
  -18.2600  -16.9670   39.0110 C   0  0  0  0  0  0  0  0  0  0  0  0
  -18.1910  -16.2970   37.6720 N   0  0  0  0  0  2  0  0  0  0  0  0
  -16.8620  -15.8950   37.1020 C   0  0  0  0  0  0  0  0  0  0  0  0
  -13.4520  -15.7020   37.3320 H   0  0  0  0  0  0  0  0  0  0  0  0
  -19.1740  -17.2440   39.4030 H   0  0  0  0  0  0  0  0  0  0  0  0
  -17.9140  -13.3760   32.6080 C   0  0  0  0  0  0  0  0  0  0  0  0
  -19.3270  -13.8810   32.5960 C   0  0  0  0  0  0  0  0  0  0  0  0
  -19.7920  -14.8330   33.6580 C   0  0  0  0  0  0  0  0  0  0  0  0
  -18.8440  -15.2800   34.7310 C   0  0  0  0  0  0  0  0  0  0  0  0
  -17.4320  -14.7750   34.7430 C   0  0  0  0  0  0  0  0  0  0  0  0
  -16.9660  -13.8230   33.6810 C   0  0  0  0  0  0  0  0  0  0  0  0
  -19.9790  -13.5730   31.8580 H   0  0  0  0  0  0  0  0  0  0  0  0
  -20.7630  -15.1800   33.6500 H   0  0  0  0  0  0  0  0  0  0  0  0
  -19.1640  -15.9350   35.4610 H   0  0  0  0  0  0  0  0  0  0  0  0
  -15.9950  -13.4760   33.6890 H   0  0  0  0  0  0  0  0  0  0  0  0
  -17.4490  -12.4230   31.5460 O   0  0  0  0  0  0  0  0  0  0  0  0
  -16.9050  -12.9510   30.2510 C   0  0  0  0  0  0  0  0  0  0  0  0
  -16.8490  -14.0070   30.0850 H   0  0  0  0  0  0  0  0  0  0  0  0
  -16.5730  -12.2730   29.4940 H   0  0  0  0  0  0  0  0  0  0  0  0
  -16.5170  -13.3280   29.3280 H   0  0  0  0  0  0  0  0  0  0  0  0
  -14.4150  -17.1040   39.9830 N   0  0  0  0  0  0  0  0  0  0  0  0
  -14.4300  -17.1030   40.9670 H   0  0  0  0  0  0  0  0  0  0  0  0
  -13.1320  -17.3730   39.2530 N   0  0  0  0  0  0  0  0  0  0  0  0
  -11.9700  -16.4380   39.4100 C   0  0  0  0  0  0  0  0  0  0  0  0
  -12.0520  -15.6090   40.0200 H   0  0  0  0  0  0  0  0  0  0  0  0
  -10.6870  -16.7070   38.6810 C   0  0  0  0  0  0  0  0  0  0  0  0
   -9.4220  -16.0240   39.1090 C   0  0  0  0  0  0  0  0  0  0  0  0
   -8.1400  -16.2930   38.3800 C   0  0  0  0  0  0  0  0  0  0  0  0
   -8.1210  -17.2460   37.2220 N   0  0  0  0  0  0  0  0  0  0  0  0
   -9.3860  -17.9300   36.7930 C   0  0  0  0  0  0  0  0  0  0  0  0
  -10.6690  -17.6600   37.5220 C   0  0  0  0  0  0  0  0  0  0  0  0
   -9.4350  -15.3680   39.9060 H   0  0  0  0  0  0  0  0  0  0  0  0
   -7.2700  -15.8220   38.6750 H   0  0  0  0  0  0  0  0  0  0  0  0
   -9.3730  -18.5860   35.9960 H   0  0  0  0  0  0  0  0  0  0  0  0
  -11.5390  -18.1310   37.2270 H   0  0  0  0  0  0  0  0  0  0  0  0
  1  9  1  0
  2  1  1  0
  2  3  2  0
  3 10  1  0
  3  4  1  0
  4  5  1  0
  5  6  1  0
  5 27  1  0
  7 11  1  0
  7  6  2  0
  8  7  1  0
  9  8  1  0
  9  4  2  0
 12 17  1  0
 13 12  2  0
 13 14  1  0
 14 15  2  0
 15 16  1  0
 15 20  1  0
 16  1  1  0
 17 21  1  0
 17 16  2  0
 18 13  1  0
 19 14  1  0
 22 12  1  0
 23 22  1  0
 24 23  1  0
 25 23  1  0
 26 23  1  0
 27 28  1  0
 29 30  2  0
 29 27  1  0
 30 31  1  0
 32 33  1  0
 32 30  1  0
 33 38  1  0
 34 39  1  0
 34 33  2  0
 35 34  1  0
 36 35  2  0
 36 37  1  0
 37 32  2  0
 40 36  1  0
 41 37  1  0
M  END
>  <minimizedAffinity>  (313) 
-7.85693836

$$$$

     RDKit          3D

 58 59  0  0  0  0  0  0  0  0999 V2000
  -12.6410  -16.5720   37.4670 C   0  0  0  0  0  0  0  0  0  0  0  0
  -11.2690  -17.0450   37.8460 C   0  0  0  0  0  0  0  0  0  0  0  0
  -10.1000  -16.7430   36.9570 N   0  0  0  0  0  0  0  0  0  0  0  0
  -10.3020  -15.9680   35.6890 C   0  0  0  0  0  0  0  0  0  0  0  0
  -11.6740  -15.4960   35.3090 N   0  0  0  0  0  0  0  0  0  0  0  0
  -12.8440  -15.7980   36.1990 C   0  0  0  0  0  0  0  0  0  0  0  0
  -14.2160  -15.3250   35.8190 N   0  0  0  0  0  0  0  0  0  0  0  0
  -11.1300  -17.5780   38.7190 H   0  0  0  0  0  0  0  0  0  0  0  0
   -9.4970  -15.7610   35.0770 H   0  0  0  0  0  0  0  0  0  0  0  0
  -14.9830  -15.5240   36.4030 H   0  0  0  0  0  0  0  0  0  0  0  0
  -14.4190  -14.5510   34.5510 C   0  0  0  0  0  0  0  0  0  0  0  0
  -13.2360  -14.1530   33.7180 C   0  0  0  0  0  0  0  0  0  0  0  0
  -13.4390  -13.3780   32.4500 C   0  0  0  0  0  0  0  0  0  0  0  0
  -14.8240  -13.0020   32.0140 C   0  0  0  0  0  0  0  0  0  0  0  0
  -16.0060  -13.4000   32.8470 C   0  0  0  0  0  0  0  0  0  0  0  0
  -17.3910  -13.0230   32.4110 Cl  0  0  0  0  0  0  0  0  0  0  0  0
  -15.8040  -14.1740   34.1150 C   0  0  0  0  0  0  0  0  0  0  0  0
  -12.2830  -14.4120   34.0180 H   0  0  0  0  0  0  0  0  0  0  0  0
  -12.6250  -13.1040   31.8770 H   0  0  0  0  0  0  0  0  0  0  0  0
  -16.6170  -14.4480   34.6880 H   0  0  0  0  0  0  0  0  0  0  0  0
  -15.0260  -12.2270   30.7450 O   0  0  0  0  0  0  0  0  0  0  0  0
  -16.0170  -11.1010   30.7040 C   0  0  0  0  0  0  0  0  0  0  0  0
  -16.0200  -10.3630   31.4790 H   0  0  0  0  0  0  0  0  0  0  0  0
  -16.7230  -10.2980   30.6750 H   0  0  0  0  0  0  0  0  0  0  0  0
  -17.0020  -11.0100   29.5770 C   0  0  0  0  0  0  0  0  0  0  0  0
  -17.3400   -9.6750   28.9830 C   0  0  0  0  0  0  0  0  0  0  0  0
  -18.3260   -9.5840   27.8560 C   0  0  0  0  0  0  0  0  0  0  0  0
  -18.9730  -10.8270   27.3220 C   0  0  0  0  0  0  0  0  0  0  0  0
  -18.6340  -12.1620   27.9160 C   0  0  0  0  0  0  0  0  0  0  0  0
  -19.2810  -13.4060   27.3830 F   0  0  0  0  0  0  0  0  0  0  0  0
  -17.6490  -12.2540   29.0440 C   0  0  0  0  0  0  0  0  0  0  0  0
  -16.8950   -8.8190   29.3500 H   0  0  0  0  0  0  0  0  0  0  0  0
  -18.5580   -8.6650   27.4470 H   0  0  0  0  0  0  0  0  0  0  0  0
  -19.6510  -10.7640   26.5470 H   0  0  0  0  0  0  0  0  0  0  0  0
  -17.4160  -13.1730   29.4520 H   0  0  0  0  0  0  0  0  0  0  0  0
  -14.9800  -17.1760   39.2460 C   0  0  0  0  0  0  0  0  0  0  0  0
  -13.8110  -16.8740   38.3560 C   0  0  0  0  0  0  0  0  0  0  0  0
  -18.5550  -16.9330   40.9520 C   0  0  0  0  0  1  0  0  0  0  0  0
  -18.4890  -18.0820   41.9130 C   0  0  0  0  0  0  0  0  0  0  0  0
  -17.2540  -18.9300   41.9850 C   0  0  0  0  0  0  0  0  0  0  0  0
  -16.0840  -18.6280   41.0960 C   0  0  0  0  0  3  0  0  0  0  0  0
  -16.1500  -17.4780   40.1350 C   0  0  0  0  0  0  0  0  0  0  0  0
  -17.3850  -16.6310   40.0630 C   0  0  0  0  0  3  0  0  0  0  0  0
  -19.2940  -18.2900   42.5250 H   0  0  0  0  0  0  0  0  0  0  0  0
  -17.2090  -19.7210   42.6470 H   0  0  0  0  0  0  0  0  0  0  0  0
  -15.2340  -19.2110   41.1460 H   0  0  0  0  0  0  0  0  0  0  0  0
  -17.4310  -15.8400   39.4020 H   0  0  0  0  0  0  0  0  0  0  0  0
  -19.7900  -16.0850   40.8800 C   0  0  0  0  0  0  0  0  0  0  0  0
  -20.7460  -16.5440   40.7290 H   0  0  0  0  0  0  0  0  0  0  0  0
  -19.8640  -17.1480   40.7800 H   0  0  0  0  0  0  0  0  0  0  0  0
  -19.6270  -13.7290   39.7980 C   0  0  0  0  0  0  0  0  0  0  0  0
  -19.6700  -14.3520   38.4340 O   0  0  0  0  0  0  0  0  0  0  0  0
  -19.6870  -14.5950   41.0210 N   0  0  0  0  0  4  0  0  0  0  0  0
  -19.6590  -14.1860   41.9160 H   0  0  0  0  0  0  0  0  0  0  0  0
  -19.5240  -12.2390   39.9390 C   0  0  0  0  0  0  0  0  0  0  0  0
  -19.4930  -11.7940   40.9120 H   0  0  0  0  0  0  0  0  0  0  0  0
  -19.4810  -11.6210   39.0660 H   0  0  0  0  0  0  0  0  0  0  0  0
  -19.4500  -11.1760   40.0390 H   0  0  0  0  0  0  0  0  0  0  0  0
  1  2  2  0
  1 37  1  0
  2  8  1  0
  3  2  1  0
  4  3  2  0
  5  4  1  0
  5  6  2  0
  6  1  1  0
  7  6  1  0
  7 10  1  0
  9  4  1  0
 11  7  1  0
 12 18  1  0
 12 11  2  0
 13 12  1  0
 14 13  2  0
 14 15  1  0
 15 17  2  0
 16 15  1  0
 17 11  1  0
 17 20  1  0
 19 13  1  0
 21 14  1  0
 22 21  1  0
 22 23  1  0
 24 22  1  0
 25 22  1  0
 26 32  1  0
 26 25  2  0
 27 26  1  0
 28 27  2  0
 28 29  1  0
 29 31  2  0
 30 29  1  0
 31 35  1  0
 31 25  1  0
 33 27  1  0
 34 28  1  0
 36 42  1  0
 37 36  3  0
 38 39  1  0
 39 40  2  0
 39 44  1  0
 40 45  1  0
 41 46  1  0
 41 40  1  0
 42 41  1  0
 43 42  2  0
 47 43  1  0
 48 53  2  0
 49 48  1  0
 50 48  1  0
 51 55  1  0
 51 53  1  0
 52 51  2  0
 53 54  1  0
 55 58  1  0
 55 56  1  0
 57 55  1  0
M  END
>  <minimizedAffinity>  (314) 
-8.94642162

$$$$

     RDKit          3D

 42 45  0  0  0  0  0  0  0  0999 V2000
  -13.5430  -15.3580   35.6880 C   0  0  0  0  0  0  0  0  0  0  0  0
  -12.7090  -15.0810   34.4730 C   0  0  0  0  0  0  0  0  0  0  0  0
  -13.3330  -14.4500   33.2630 C   0  0  0  0  0  0  0  0  0  0  0  0
  -14.7900  -14.0970   33.2690 N   0  0  0  0  0  0  0  0  0  0  0  0
  -15.6250  -14.3740   34.4840 C   0  0  0  0  0  0  0  0  0  0  0  0
  -17.0830  -14.0210   34.4890 N   0  0  0  0  0  0  0  0  0  0  0  0
  -15.0010  -15.0050   35.6930 N   0  0  0  0  0  0  0  0  0  0  0  0
  -11.7060  -15.3240   34.4690 H   0  0  0  0  0  0  0  0  0  0  0  0
  -12.7580  -14.2590   32.4270 H   0  0  0  0  0  0  0  0  0  0  0  0
  -17.6300  -14.2040   35.2870 H   0  0  0  0  0  0  0  0  0  0  0  0
   -8.7220  -17.0600   38.0330 C   0  0  0  0  0  0  0  0  0  0  0  0
   -8.8980  -16.4260   36.6850 C   0  0  0  0  0  0  0  0  0  0  0  0
  -10.2660  -16.0310   36.2140 C   0  0  0  0  0  0  0  0  0  0  0  0
  -11.4590  -16.2710   37.0910 C   0  0  0  0  0  0  0  0  0  0  0  0
  -12.9200  -15.9890   36.8980 C   0  0  0  0  0  0  0  0  0  0  0  0
  -13.6470  -16.4500   38.1260 C   0  0  0  0  0  0  0  0  0  0  0  0
  -12.6370  -17.0150   39.0790 N   0  0  0  0  0  0  0  0  0  0  0  0
  -11.2840  -16.9050   38.4390 N   0  0  0  0  0  0  0  0  0  0  0  0
   -9.9150  -17.2990   38.9100 N   0  0  0  0  0  0  0  0  0  0  0  0
   -8.0770  -16.2610   36.0810 H   0  0  0  0  0  0  0  0  0  0  0  0
  -10.3860  -15.5950   35.2860 H   0  0  0  0  0  0  0  0  0  0  0  0
  -14.6650  -16.3880   38.2870 H   0  0  0  0  0  0  0  0  0  0  0  0
   -7.3540  -17.4550   38.5040 O   0  0  0  0  0  0  0  0  0  0  0  0
   -6.9740  -18.9040   38.5720 C   0  0  0  0  0  0  0  0  0  0  0  0
   -7.6780  -19.6570   38.2850 H   0  0  0  0  0  0  0  0  0  0  0  0
   -5.9970  -19.1860   38.9080 H   0  0  0  0  0  0  0  0  0  0  0  0
   -6.7020  -19.9380   38.6210 H   0  0  0  0  0  0  0  0  0  0  0  0
  -17.7060  -13.3900   33.2790 C   0  0  0  0  0  0  0  0  0  0  0  0
  -18.7250  -14.1470   32.4810 C   0  0  0  0  0  0  0  0  0  0  0  0
  -19.3490  -13.5160   31.2710 C   0  0  0  0  0  0  0  0  0  0  0  0
  -18.9530  -12.1290   30.8610 C   0  0  0  0  0  0  0  0  0  0  0  0
  -17.9340  -11.3720   31.6600 C   0  0  0  0  0  0  0  0  0  0  0  0
  -17.3100  -12.0030   32.8690 C   0  0  0  0  0  0  0  0  0  0  0  0
  -18.9980  -15.1010   32.7630 H   0  0  0  0  0  0  0  0  0  0  0  0
  -20.0500  -14.0360   30.7220 H   0  0  0  0  0  0  0  0  0  0  0  0
  -19.3820  -11.6940   30.0280 H   0  0  0  0  0  0  0  0  0  0  0  0
  -16.6090  -11.4820   33.4190 H   0  0  0  0  0  0  0  0  0  0  0  0
  -17.5380   -9.9850   31.2490 O   0  0  0  0  0  0  0  0  0  0  0  0
  -16.5790   -9.7830   30.1150 C   0  0  0  0  0  0  0  0  0  0  0  0
  -15.6180   -9.5820   28.9800 F   0  0  0  0  0  0  0  0  0  0  0  0
  -15.4260   -9.9370   31.0620 F   0  0  0  0  0  0  0  0  0  0  0  0
  -17.7300   -9.6290   29.1670 F   0  0  0  0  0  0  0  0  0  0  0  0
  1  7  2  0
  1 15  1  0
  2  1  1  0
  3  4  1  0
  3  2  2  0
  4  5  2  0
  5  6  1  0
  5  7  1  0
  6 10  1  0
  8  2  1  0
  9  3  1  0
 11 23  1  0
 11 19  2  0
 12 11  1  0
 13 12  2  0
 13 14  1  0
 14 18  1  0
 15 14  2  0
 15 16  1  0
 16 22  1  0
 16 17  2  0
 18 19  1  0
 18 17  1  0
 20 12  1  0
 21 13  1  0
 23 24  1  0
 24 27  1  0
 24 26  1  0
 25 24  1  0
 28  6  1  0
 29 34  1  0
 29 28  2  0
 30 29  1  0
 31 30  2  0
 31 32  1  0
 32 33  2  0
 33 28  1  0
 33 37  1  0
 35 30  1  0
 36 31  1  0
 38 32  1  0
 39 41  1  0
 39 38  1  0
 40 39  1  0
 42 39  1  0
M  END
>  <minimizedAffinity>  (315) 
-7.80403614

$$$$

     RDKit          3D

 33 34  0  0  0  0  0  0  0  0999 V2000
  -14.0550  -14.6390   34.3580 C   0  0  0  0  0  3  0  0  0  0  0  0
  -15.5520  -14.5890   34.4370 N   0  0  0  0  0  0  0  0  0  0  0  0
  -16.2610  -15.1960   35.6110 C   0  0  0  0  0  0  0  0  0  0  0  0
  -15.4730  -15.8510   36.7070 C   0  0  0  0  0  0  0  0  0  0  0  0
  -13.9760  -15.9010   36.6270 C   0  0  0  0  0  0  0  0  0  0  0  0
  -13.2670  -15.2940   35.4530 C   0  0  0  0  0  0  0  0  0  0  0  0
  -11.7920  -15.4940   35.6470 N   0  0  0  0  0  0  0  0  0  0  0  0
  -11.5910  -16.2240   36.9420 C   0  0  0  0  0  0  0  0  0  0  0  0
  -12.9400  -16.4760   37.5480 N   0  0  0  0  0  0  0  0  0  0  0  0
  -17.2910  -15.1620   35.6660 H   0  0  0  0  0  0  0  0  0  0  0  0
  -15.9610  -16.2690   37.5150 H   0  0  0  0  0  0  0  0  0  0  0  0
  -10.2720  -16.6310   37.5290 C   0  0  0  0  0  0  0  0  0  0  0  0
   -9.9550  -16.7480   38.9910 N   0  0  0  0  0  0  0  0  0  0  0  0
   -8.5250  -17.1820   39.1210 O   0  0  0  0  0  0  0  0  0  0  0  0
   -7.9580  -17.3330   37.7410 N   0  0  0  0  0  0  0  0  0  0  0  0
   -9.0380  -16.9930   36.7560 C   0  0  0  0  0  0  0  0  0  0  0  0
   -8.9060  -17.0110   35.2630 N   0  0  0  0  0  0  0  0  0  0  0  0
   -9.6750  -16.7710   34.6980 H   0  0  0  0  0  0  0  0  0  0  0  0
   -8.0510  -17.2640   34.8460 H   0  0  0  0  0  0  0  0  0  0  0  0
  -13.3450  -14.0320   33.1830 C   0  0  0  0  0  3  0  0  0  0  0  0
  -12.2930  -14.1830   33.0580 H   0  0  0  0  0  0  0  0  0  0  0  0
  -12.7990  -14.6150   33.8950 H   0  0  0  0  0  0  0  0  0  0  0  0
  -14.1110  -13.2150   32.1850 C   0  0  0  0  0  0  0  0  0  0  0  0
  -15.1630  -13.0650   32.3110 H   0  0  0  0  0  0  0  0  0  0  0  0
  -13.6050  -12.7830   31.3470 H   0  0  0  0  0  0  0  0  0  0  0  0
  -14.6570  -12.6320   31.4730 H   0  0  0  0  0  0  0  0  0  0  0  0
  -13.2070  -17.1780   38.8460 C   0  0  0  0  0  0  0  0  0  0  0  0
  -13.2510  -18.2470   38.8770 H   0  0  0  0  0  0  0  0  0  0  0  0
  -13.3980  -17.6790   39.7720 H   0  0  0  0  0  0  0  0  0  0  0  0
  -13.4130  -16.3830   40.1010 C   0  0  0  0  0  0  0  0  0  0  0  0
  -13.6030  -16.8840   41.0260 H   0  0  0  0  0  0  0  0  0  0  0  0
  -13.3690  -15.3140   40.0700 H   0  0  0  0  0  0  0  0  0  0  0  0
  -13.5590  -15.8160   40.9960 H   0  0  0  0  0  0  0  0  0  0  0  0
  1  2  2  0
  1  6  1  0
  2  3  1  0
  3 10  1  0
  3  4  2  0
  4 11  1  0
  5  4  1  0
  5  9  1  0
  6  7  1  0
  6  5  2  0
  7  8  2  0
  8 12  1  0
  8  9  1  0
  9 27  1  0
 12 13  2  0
 13 14  1  0
 15 14  1  0
 16 12  1  0
 16 15  2  0
 17 16  1  0
 18 17  1  0
 19 17  1  0
 20 22  1  0
 21 20  1  0
 23 24  1  0
 23 20  1  0
 25 23  1  0
 26 23  1  0
 27 28  1  0
 27 29  1  0
 27 30  1  0
 30 33  1  0
 30 31  1  0
 32 30  1  0
M  END
>  <minimizedAffinity>  (316) 
-8.51616955

$$$$

     RDKit          3D

 72 68  0  0  0  0  0  0  0  0999 V2000
  -17.8210  -15.9910   37.5580 C   0  0  0  0  0  0  0  0  0  0  0  0
  -18.5960  -17.0210   38.3260 C   0  0  0  0  0  0  0  0  0  0  0  0
  -17.8290  -17.3390   39.5760 C   0  0  0  0  0  0  0  0  0  0  0  0
  -18.1070  -18.2800   40.7110 N   0  0  0  0  0  0  0  0  0  0  0  0
  -17.1370  -18.3890   41.8500 C   0  0  0  0  0  0  0  0  0  0  0  0
  -15.8890  -17.5560   41.8540 N   0  0  0  0  0  0  0  0  0  0  0  0
  -15.6120  -16.6150   40.7190 C   0  0  0  0  0  0  0  0  0  0  0  0
  -16.5820  -16.5060   39.5800 C   0  0  0  0  0  0  0  0  0  0  0  0
  -16.5770  -15.6730   38.3330 S   0  0  0  0  0  0  0  0  0  0  0  0
  -19.4970  -17.4370   38.0440 H   0  0  0  0  0  0  0  0  0  0  0  0
  -17.3280  -19.0360   42.6300 H   0  0  0  0  0  0  0  0  0  0  0  0
  -18.6210  -14.7790   34.9330 C   0  0  0  0  0 15  0  0  0  0  0  0
  -18.2210  -15.3850   36.2460 C   0  0  0  0  0  1  0  0  0  0  0  0
  -19.5600  -12.5550   31.8930 C   0  0  0  0  0  2  0  0  0  0  0  0
  -19.7130  -13.9270   31.3060 C   0  0  0  0  0  2  0  0  0  0  0  0
  -19.3800  -14.9280   32.3740 N   0  0  0  0  0  1  0  0  0  0  0  0
  -19.0210  -14.1740   33.6200 C   0  0  0  0  0  2  0  0  0  0  0  0
  -19.1330  -12.7070   33.3230 C   0  0  0  0  0  3  0  0  0  0  0  0
  -19.8640  -12.6150   30.8690 H   0  0  0  0  0  0  0  0  0  0  0  0
  -20.0070  -14.1530   30.3030 H   0  0  0  0  0  0  0  0  0  0  0  0
  -19.7760  -14.9620   31.0400 H   0  0  0  0  0  0  0  0  0  0  0  0
  -19.3940  -15.9430   32.2700 H   0  0  0  0  0  0  0  0  0  0  0  0
  -18.9890  -15.2410   33.6720 H   0  0  0  0  0  0  0  0  0  0  0  0
  -18.9410  -11.9110   34.0110 H   0  0  0  0  0  0  0  0  0  0  0  0
  -19.2580  -11.7100   32.9560 H   0  0  0  0  0  0  0  0  0  0  0  0
  -19.7940  -11.2590   31.1760 O   0  0  0  0  0  0  0  0  0  0  0  0
  -19.7410  -11.1200   28.5820 O   0  0  0  0  0  0  0  0  0  0  0  0
  -19.0540  -10.9600   29.9070 C   0  0  0  0  0  0  0  0  0  0  0  0
  -17.6270  -10.5020   29.9600 N   0  0  0  0  0  2  0  0  0  0  0  0
  -16.8870  -10.2030   28.6900 C   0  0  0  0  0  3  0  0  0  0  0  0
  -15.4590   -9.7440   28.7440 C   0  0  0  0  0  2  0  0  0  0  0  0
  -14.7720   -9.5840   30.0680 O   0  0  0  0  0  1  0  0  0  0  0  0
  -15.5120   -9.8830   31.3380 C   0  0  0  0  0  3  0  0  0  0  0  0
  -16.9400  -10.3410   31.2840 C   0  0  0  0  0  2  0  0  0  0  0  0
  -17.3760  -10.3170   27.7460 H   0  0  0  0  0  0  0  0  0  0  0  0
  -16.3580   -9.9900   27.7840 H   0  0  0  0  0  0  0  0  0  0  0  0
  -14.9310   -9.5320   27.8390 H   0  0  0  0  0  0  0  0  0  0  0  0
  -14.4410   -9.4170   28.7830 H   0  0  0  0  0  0  0  0  0  0  0  0
  -15.0230   -9.7680   32.2820 H   0  0  0  0  0  0  0  0  0  0  0  0
  -16.0410  -10.0960   32.2440 H   0  0  0  0  0  0  0  0  0  0  0  0
  -17.4680  -10.5540   32.1890 H   0  0  0  0  0  0  0  0  0  0  0  0
  -17.9580  -10.6690   31.2460 H   0  0  0  0  0  0  0  0  0  0  0  0
  -14.3640  -15.7820   40.7240 N   0  0  0  0  0  0  0  0  0  0  0  0
  -14.1880  -15.1630   41.4690 H   0  0  0  0  0  0  0  0  0  0  0  0
  -13.3860  -15.8900   39.5920 C   0  0  0  0  0  0  0  0  0  0  0  0
  -12.0400  -16.5100   39.8210 C   0  0  0  0  0  0  0  0  0  0  0  0
  -11.0610  -16.6190   38.6900 C   0  0  0  0  0  0  0  0  0  0  0  0
  -11.4290  -16.1080   37.3280 C   0  0  0  0  0  0  0  0  0  0  0  0
  -12.7760  -15.4880   37.0990 C   0  0  0  0  0  0  0  0  0  0  0  0
  -12.8570  -15.0760   35.6590 C   0  0  0  0  0  0  0  0  0  0  0  0
  -11.5600  -15.4410   34.9980 C   0  0  0  0  0  0  0  0  0  0  0  0
  -10.6780  -16.0790   36.0300 N   0  0  0  0  0  0  0  0  0  0  0  0
  -13.7540  -15.3790   38.2300 C   0  0  0  0  0  0  0  0  0  0  0  0
  -11.7860  -16.8620   40.7580 H   0  0  0  0  0  0  0  0  0  0  0  0
  -10.1350  -17.0460   38.8480 H   0  0  0  0  0  0  0  0  0  0  0  0
  -13.6630  -14.6210   35.2030 H   0  0  0  0  0  0  0  0  0  0  0  0
  -11.3180  -15.2810   34.0080 H   0  0  0  0  0  0  0  0  0  0  0  0
  -14.6810  -14.9530   38.0720 H   0  0  0  0  0  0  0  0  0  0  0  0
   -9.2890  -16.5960   35.8040 C   0  0  0  0  0  0  0  0  0  0  0  0
   -8.8720  -16.5990   34.8180 H   0  0  0  0  0  0  0  0  0  0  0  0
   -8.2970  -16.9660   35.6420 H   0  0  0  0  0  0  0  0  0  0  0  0
   -8.4830  -17.1120   36.9590 C   0  0  0  0  0  0  0  0  0  0  0  0
   -8.4740  -18.5780   37.2750 C   0  0  0  0  0  0  0  0  0  0  0  0
   -7.6680  -19.0930   38.4290 C   0  0  0  0  0  0  0  0  0  0  0  0
   -7.6600  -20.5590   38.7450 F   0  0  0  0  0  0  0  0  0  0  0  0
   -6.8690  -18.1400   39.2700 C   0  0  0  0  0  0  0  0  0  0  0  0
   -6.8770  -16.6740   38.9550 C   0  0  0  0  0  0  0  0  0  0  0  0
   -7.6840  -16.1590   37.7990 C   0  0  0  0  0  0  0  0  0  0  0  0
   -7.6910  -14.6930   37.4840 F   0  0  0  0  0  0  0  0  0  0  0  0
   -9.0240  -19.2330   36.6960 H   0  0  0  0  0  0  0  0  0  0  0  0
   -6.3140  -18.4950   40.0650 H   0  0  0  0  0  0  0  0  0  0  0  0
   -6.3280  -16.0190   39.5320 H   0  0  0  0  0  0  0  0  0  0  0  0
  1  2  2  0
  1  9  1  0
  2  3  1  0
  3  8  2  0
  3  4  1  0
  4  5  2  0
  5  6  1  0
  5 11  1  0
  7 43  1  0
  7  6  2  0
  8  7  1  0
  9  8  1  0
 10  2  1  0
 13  1  1  0
 17 23  1  0
 18 17  1  0
 18 24  1  0
 19 14  1  0
 20 15  1  0
 21 15  1  0
 22 16  1  0
 25 18  1  0
 26 14  1  0
 27 28  2  0
 28 29  1  0
 28 26  1  0
 30 29  1  0
 31 38  1  0
 32 33  1  0
 33 40  1  0
 33 39  1  0
 34 41  1  0
 35 30  1  0
 36 30  1  0
 37 31  1  0
 42 34  1  0
 43 44  1  0
 45 46  1  0
 45 43  1  0
 46 54  1  0
 47 55  1  0
 47 46  2  0
 48 47  1  0
 49 48  2  0
 49 53  1  0
 50 49  1  0
 51 50  2  0
 51 52  1  0
 52 48  1  0
 53 45  2  0
 56 50  1  0
 57 51  1  0
 58 53  1  0
 59 52  1  0
 59 62  1  0
 60 59  1  0
 61 59  1  0
 62 63  2  0
 62 68  1  0
 63 64  1  0
 64 65  1  0
 64 66  2  0
 66 71  1  0
 67 66  1  0
 67 72  1  0
 68 67  2  0
 69 68  1  0
 70 63  1  0
M  END
>  <minimizedAffinity>  (317) 
-10.1489382

$$$$

     RDKit          3D

 53 56  0  0  0  0  0  0  0  0999 V2000
  -19.7850  -14.5390   35.4510 N   0  0  0  0  0  0  0  0  0  0  0  0
  -18.9470  -15.2330   36.4830 C   0  0  0  0  0  0  0  0  0  0  0  0
  -19.5980  -15.8700   37.6740 N   0  0  0  0  0  0  0  0  0  0  0  0
  -18.7600  -16.5640   38.7060 C   0  0  0  0  0  3  0  0  0  0  0  0
  -17.2690  -16.6210   38.5470 C   0  0  0  0  0  0  0  0  0  0  0  0
  -16.1910  -17.2300   39.3940 C   0  0  0  0  0  0  0  0  0  0  0  0
  -14.8740  -16.9690   38.7270 N   0  0  0  0  0  0  0  0  0  0  0  0
  -15.1370  -16.1990   37.4670 C   0  0  0  0  0  0  0  0  0  0  0  0
  -16.6170  -15.9840   37.3560 N   0  0  0  0  0  0  0  0  0  0  0  0
  -17.4560  -15.2900   36.3240 N   0  0  0  0  0  2  0  0  0  0  0  0
  -20.7630  -14.5020   35.5560 H   0  0  0  0  0  0  0  0  0  0  0  0
  -19.2080  -17.0030   39.5260 H   0  0  0  0  0  0  0  0  0  0  0  0
  -14.1020  -15.7270   36.4890 C   0  0  0  0  0  0  0  0  0  0  0  0
  -14.5040  -14.8700   35.3260 C   0  0  0  0  0  0  0  0  0  0  0  0
  -13.4690  -14.3970   34.3480 C   0  0  0  0  0  0  0  0  0  0  0  0
  -12.0310  -14.7830   34.5350 C   0  0  0  0  0  0  0  0  0  0  0  0
  -11.6290  -15.6390   35.6980 C   0  0  0  0  0  0  0  0  0  0  0  0
  -12.6640  -16.1120   36.6760 C   0  0  0  0  0  0  0  0  0  0  0  0
  -15.4930  -14.6050   35.1980 H   0  0  0  0  0  0  0  0  0  0  0  0
  -13.7460  -13.8080   33.5480 H   0  0  0  0  0  0  0  0  0  0  0  0
  -11.3190  -14.4570   33.8620 H   0  0  0  0  0  0  0  0  0  0  0  0
  -12.3870  -16.7010   37.4760 H   0  0  0  0  0  0  0  0  0  0  0  0
  -10.1910  -16.0250   35.8850 C   0  0  0  0  0  0  0  0  0  0  0  0
   -8.7540  -16.4090   36.0720 F   0  0  0  0  0  0  0  0  0  0  0  0
  -10.3720  -15.9760   37.3730 F   0  0  0  0  0  0  0  0  0  0  0  0
  -10.0110  -16.0730   34.3970 F   0  0  0  0  0  0  0  0  0  0  0  0
  -18.9030  -13.6570   31.6840 C   0  0  0  0  0  0  0  0  0  0  0  0
  -19.5550  -14.2940   32.8750 C   0  0  0  0  0  0  0  0  0  0  0  0
  -19.1340  -13.9010   34.2600 C   0  0  0  0  0  0  0  0  0  0  0  0
  -18.0610  -12.8710   34.4540 C   0  0  0  0  0  0  0  0  0  0  0  0
  -17.4090  -12.2340   33.2620 C   0  0  0  0  0  0  0  0  0  0  0  0
  -17.8300  -12.6270   31.8770 C   0  0  0  0  0  0  0  0  0  0  0  0
  -20.2930  -15.0030   32.7420 H   0  0  0  0  0  0  0  0  0  0  0  0
  -17.7710  -12.6010   35.4070 H   0  0  0  0  0  0  0  0  0  0  0  0
  -19.3240  -14.0500   30.2990 O   0  0  0  0  0  0  0  0  0  0  0  0
  -19.7910  -13.0030   29.3310 C   0  0  0  0  0  0  0  0  0  0  0  0
  -20.0920  -13.2830   28.3430 H   0  0  0  0  0  0  0  0  0  0  0  0
  -19.8240  -11.9750   29.6290 H   0  0  0  0  0  0  0  0  0  0  0  0
  -20.1240  -12.2560   28.6410 H   0  0  0  0  0  0  0  0  0  0  0  0
  -16.3360  -11.2040   33.4560 O   0  0  0  0  0  0  0  0  0  0  0  0
  -16.6510   -9.7490   33.2700 C   0  0  0  0  0  0  0  0  0  0  0  0
  -17.6400   -9.4460   32.9990 H   0  0  0  0  0  0  0  0  0  0  0  0
  -15.8850   -9.0140   33.4080 H   0  0  0  0  0  0  0  0  0  0  0  0
  -16.8750   -8.7110   33.1370 H   0  0  0  0  0  0  0  0  0  0  0  0
  -17.1780  -11.9900   30.6860 O   0  0  0  0  0  0  0  0  0  0  0  0
  -15.8620  -12.5060   30.1860 C   0  0  0  0  0  0  0  0  0  0  0  0
  -15.3970  -12.0510   29.3360 H   0  0  0  0  0  0  0  0  0  0  0  0
  -15.3880  -13.3290   30.6790 H   0  0  0  0  0  0  0  0  0  0  0  0
  -14.9230  -12.8740   29.8290 H   0  0  0  0  0  0  0  0  0  0  0  0
  -16.3960  -17.9700   40.6830 C   0  0  0  0  0  0  0  0  0  0  0  0
  -17.3830  -18.1010   41.0740 H   0  0  0  0  0  0  0  0  0  0  0  0
  -15.5540  -18.3670   41.2110 H   0  0  0  0  0  0  0  0  0  0  0  0
  -16.5420  -18.4980   41.6020 H   0  0  0  0  0  0  0  0  0  0  0  0
  1 11  1  0
  1  2  1  0
  2  3  2  0
  3  4  1  0
  4 12  1  0
  5  4  1  0
  5  6  2  0
  6 50  1  0
  7  6  1  0
  8  7  2  0
  9  8  1  0
  9  5  1  0
 10  2  1  0
 10  9  1  0
 13 18  1  0
 13  8  1  0
 14 13  2  0
 15 16  2  0
 15 14  1  0
 16 17  1  0
 17 23  1  0
 17 18  2  0
 18 22  1  0
 19 14  1  0
 20 15  1  0
 21 16  1  0
 23 24  1  0
 23 25  1  0
 26 23  1  0
 27 32  2  0
 27 28  1  0
 28 29  2  0
 29 30  1  0
 29  1  1  0
 30 34  1  0
 31 40  1  0
 31 30  2  0
 32 31  1  0
 33 28  1  0
 35 27  1  0
 36 38  1  0
 36 35  1  0
 37 36  1  0
 39 36  1  0
 41 43  1  0
 41 40  1  0
 42 41  1  0
 44 41  1  0
 45 32  1  0
 46 48  1  0
 46 45  1  0
 47 46  1  0
 49 46  1  0
 50 51  1  0
 50 52  1  0
 50 53  1  0
M  END
>  <minimizedAffinity>  (318) 
-8.90526772

$$$$

     RDKit          3D

 55 58  0  0  0  0  0  0  0  0999 V2000
  -12.4290  -14.6780   33.9840 C   0  0  0  0  0  0  0  0  0  0  0  0
  -11.1130  -14.8760   33.2910 C   0  0  0  0  0  0  0  0  0  0  0  0
  -10.0280  -15.6700   33.9560 N   0  0  0  0  0  0  0  0  0  0  0  0
  -10.2580  -16.2660   35.3130 C   0  0  0  0  0  0  0  0  0  0  0  0
  -11.5740  -16.0670   36.0060 N   0  0  0  0  0  0  0  0  0  0  0  0
  -12.6590  -15.2740   35.3410 C   0  0  0  0  0  0  0  0  0  0  0  0
  -13.9750  -15.0750   36.0330 N   0  0  0  0  0  0  0  0  0  0  0  0
  -10.9540  -14.4670   32.3570 H   0  0  0  0  0  0  0  0  0  0  0  0
   -9.5110  -16.8120   35.7710 H   0  0  0  0  0  0  0  0  0  0  0  0
  -14.6870  -14.5550   35.5970 H   0  0  0  0  0  0  0  0  0  0  0  0
  -14.2060  -15.6710   37.3900 C   0  0  0  0  0  0  0  0  0  0  0  0
  -14.6220  -17.1060   37.5190 C   0  0  0  0  0  0  0  0  0  0  0  0
  -14.8520  -17.7020   38.8760 C   0  0  0  0  0  0  0  0  0  0  0  0
  -14.6670  -16.8620   40.1050 C   0  0  0  0  0  0  0  0  0  0  0  0
  -14.2500  -15.4270   39.9770 C   0  0  0  0  0  0  0  0  0  0  0  0
  -14.0650  -14.5870   41.2060 Cl  0  0  0  0  0  0  0  0  0  0  0  0
  -14.0200  -14.8310   38.6190 C   0  0  0  0  0  0  0  0  0  0  0  0
  -14.7500  -17.6840   36.6730 H   0  0  0  0  0  0  0  0  0  0  0  0
  -15.1390  -18.6890   38.9640 H   0  0  0  0  0  0  0  0  0  0  0  0
  -13.7330  -13.8430   38.5310 H   0  0  0  0  0  0  0  0  0  0  0  0
  -14.8970  -17.4570   41.4620 O   0  0  0  0  0  0  0  0  0  0  0  0
  -16.2940  -17.6180   41.9830 C   0  0  0  0  0  0  0  0  0  0  0  0
  -16.4590  -18.0460   42.9500 H   0  0  0  0  0  0  0  0  0  0  0  0
  -17.2910  -17.7330   42.3550 H   0  0  0  0  0  0  0  0  0  0  0  0
  -17.4610  -17.1790   41.1490 C   0  0  0  0  0  0  0  0  0  0  0  0
  -18.3140  -18.2000   40.4550 C   0  0  0  0  0  0  0  0  0  0  0  0
  -19.4800  -17.7610   39.6210 C   0  0  0  0  0  0  0  0  0  0  0  0
  -19.7940  -16.3010   39.4800 C   0  0  0  0  0  0  0  0  0  0  0  0
  -18.9420  -15.2800   40.1740 C   0  0  0  0  0  0  0  0  0  0  0  0
  -19.2560  -13.8200   40.0330 F   0  0  0  0  0  0  0  0  0  0  0  0
  -17.7750  -15.7190   41.0080 C   0  0  0  0  0  0  0  0  0  0  0  0
  -18.0970  -19.2050   40.5520 H   0  0  0  0  0  0  0  0  0  0  0  0
  -20.0670  -18.4630   39.1440 H   0  0  0  0  0  0  0  0  0  0  0  0
  -20.5970  -15.9990   38.9060 H   0  0  0  0  0  0  0  0  0  0  0  0
  -17.1890  -15.0170   41.4860 H   0  0  0  0  0  0  0  0  0  0  0  0
  -14.5990  -13.0900   32.6540 C   0  0  0  0  0  0  0  0  0  0  0  0
  -13.5140  -13.8840   33.3190 C   0  0  0  0  0  0  0  0  0  0  0  0
  -17.2790  -11.9130   29.9740 C   0  0  0  0  0  0  0  0  0  0  0  0
  -17.8550  -10.7090   30.6590 C   0  0  0  0  0  0  0  0  0  0  0  0
  -17.3450  -10.2990   32.0090 C   0  0  0  0  0  0  0  0  0  0  0  0
  -16.2600  -11.0930   32.6740 C   0  0  0  0  0  0  0  0  0  0  0  0
  -15.6840  -12.2970   31.9890 C   0  0  0  0  0  0  0  0  0  0  0  0
  -16.1940  -12.7070   30.6390 C   0  0  0  0  0  0  0  0  0  0  0  0
  -18.6020  -10.1630   30.2020 H   0  0  0  0  0  0  0  0  0  0  0  0
  -17.7420   -9.4710   32.4800 H   0  0  0  0  0  0  0  0  0  0  0  0
  -15.9100  -10.8110   33.6030 H   0  0  0  0  0  0  0  0  0  0  0  0
  -15.7980  -13.5350   30.1680 H   0  0  0  0  0  0  0  0  0  0  0  0
  -18.5430  -13.6100   28.4660 N   0  0  0  0  0  0  0  0  0  0  0  0
  -17.7890  -12.3230   28.6240 C   0  0  0  0  0  0  0  0  0  0  0  0
  -17.5440  -11.4460   27.4320 O   0  0  0  0  0  0  0  0  0  0  0  0
  -18.7040  -14.1860   29.2490 H   0  0  0  0  0  0  0  0  0  0  0  0
  -19.0530  -14.0200   27.1160 C   0  0  0  0  0  0  0  0  0  0  0  0
  -19.5910  -14.9380   27.0040 H   0  0  0  0  0  0  0  0  0  0  0  0
  -18.8780  -13.3940   26.2660 H   0  0  0  0  0  0  0  0  0  0  0  0
  -19.4160  -14.3120   26.1530 H   0  0  0  0  0  0  0  0  0  0  0  0
  1  6  1  0
  2  3  1  0
  2  1  2  0
  3  4  2  0
  4  9  1  0
  4  5  1  0
  6  5  2  0
  6  7  1  0
  7 11  1  0
  8  2  1  0
 10  7  1  0
 11 12  2  0
 11 17  1  0
 12 13  1  0
 13 19  1  0
 13 14  2  0
 14 21  1  0
 15 14  1  0
 15 16  1  0
 17 15  2  0
 18 12  1  0
 20 17  1  0
 21 22  1  0
 22 24  1  0
 22 23  1  0
 25 22  1  0
 26 32  1  0
 26 25  2  0
 27 26  1  0
 28 27  2  0
 28 29  1  0
 29 31  2  0
 30 29  1  0
 31 25  1  0
 31 35  1  0
 33 27  1  0
 34 28  1  0
 36 37  3  0
 37  1  1  0
 38 43  2  0
 38 39  1  0
 39 40  2  0
 40 45  1  0
 40 41  1  0
 41 46  1  0
 42 36  1  0
 42 41  2  0
 43 42  1  0
 44 39  1  0
 47 43  1  0
 48 49  1  0
 48 51  1  0
 49 38  1  0
 50 49  2  0
 52 48  1  0
 53 52  1  0
 54 52  1  0
 55 52  1  0
M  END
>  <minimizedAffinity>  (319) 
-8.289814

$$$$

     RDKit          3D

 66 64  0  0  1  0  0  0  0  0999 V2000
  -14.0930  -16.7980   38.5050 C   0  0  0  0  0  0  0  0  0  0  0  0
  -14.7760  -17.5430   39.6130 C   0  0  0  0  0  0  0  0  0  0  0  0
  -16.2720  -17.5240   39.7180 C   0  0  0  0  0  0  0  0  0  0  0  0
  -17.0850  -16.7600   38.7150 C   0  0  0  0  0  0  0  0  0  0  0  0
  -18.5810  -16.7420   38.8200 N   0  0  0  0  0  0  0  0  0  0  0  0
  -19.3940  -15.9780   37.8170 C   0  0  0  0  0  0  0  0  0  0  0  0
  -18.7110  -15.2340   36.7090 N   0  0  0  0  0  0  0  0  0  0  0  0
  -17.2150  -15.2520   36.6040 C   0  0  0  0  0  0  0  0  0  0  0  0
  -16.5320  -14.5080   35.4950 N   0  0  0  0  0  0  0  0  0  0  0  0
  -16.4020  -16.0160   37.6070 C   0  0  0  0  0  0  0  0  0  0  0  0
  -14.9060  -16.0350   37.5020 C   0  0  0  0  0  0  0  0  0  0  0  0
  -14.2170  -18.0680   40.3030 H   0  0  0  0  0  0  0  0  0  0  0  0
  -16.7430  -18.0360   40.4810 H   0  0  0  0  0  0  0  0  0  0  0  0
  -20.4240  -15.9660   37.8900 H   0  0  0  0  0  0  0  0  0  0  0  0
  -15.5500  -14.5200   35.4260 H   0  0  0  0  0  0  0  0  0  0  0  0
  -14.4360  -15.5220   36.7390 H   0  0  0  0  0  0  0  0  0  0  0  0
  -17.3450  -13.7440   34.4920 C   0  0  0  0  0  0  0  0  0  0  0  0
  -17.3430  -14.1620   33.0510 C   0  0  0  0  0  0  0  0  0  0  0  0
  -18.1560  -13.3990   32.0480 C   0  0  0  0  0  0  0  0  0  0  0  0
  -18.9710  -12.2180   32.4860 C   0  0  0  0  0  0  0  0  0  0  0  0
  -18.9730  -11.8000   33.9260 C   0  0  0  0  0  0  0  0  0  0  0  0
  -19.7870  -10.6190   34.3640 Cl  0  0  0  0  0  0  0  0  0  0  0  0
  -18.1600  -12.5640   34.9290 C   0  0  0  0  0  0  0  0  0  0  0  0
  -16.7820  -14.9740   32.7500 H   0  0  0  0  0  0  0  0  0  0  0  0
  -18.1540  -13.6860   31.0570 H   0  0  0  0  0  0  0  0  0  0  0  0
  -18.1610  -12.2760   35.9210 H   0  0  0  0  0  0  0  0  0  0  0  0
  -19.7830  -11.4540   31.4820 O   0  0  0  0  0  0  0  0  0  0  0  0
  -19.2020  -10.2470   30.8080 C   0  0  0  0  0  0  0  0  0  0  0  0
  -19.3450   -9.2750   31.2340 H   0  0  0  0  0  0  0  0  0  0  0  0
  -18.7870   -9.3850   30.3280 H   0  0  0  0  0  0  0  0  0  0  0  0
  -18.4200  -10.4010   29.5380 C   0  0  0  0  0  0  0  0  0  0  0  0
  -19.0650  -11.0090   28.3290 C   0  0  0  0  0  0  0  0  0  0  0  0
  -18.2830  -11.1630   27.0580 C   0  0  0  0  0  0  0  0  0  0  0  0
  -16.8550  -10.7090   26.9970 C   0  0  0  0  0  0  0  0  0  0  0  0
  -16.2090  -10.1010   28.2070 C   0  0  0  0  0  0  0  0  0  0  0  0
  -16.9910   -9.9470   29.4770 C   0  0  0  0  0  0  0  0  0  0  0  0
  -20.0480  -11.3220   28.3700 H   0  0  0  0  0  0  0  0  0  0  0  0
  -18.7280  -11.5820   26.2260 H   0  0  0  0  0  0  0  0  0  0  0  0
  -16.3160  -10.8150   26.1230 H   0  0  0  0  0  0  0  0  0  0  0  0
  -15.2260   -9.7890   28.1650 H   0  0  0  0  0  0  0  0  0  0  0  0
  -16.5470   -9.5290   30.3090 H   0  0  0  0  0  0  0  0  0  0  0  0
  -10.3450  -17.1920   37.5750 C   0  0  0  0  0 15  0  0  0  0  0  0
  -10.2430  -16.4980   38.9010 C   0  0  0  0  0  3  0  0  0  0  0  0
  -11.6350  -16.2660   39.4100 C   0  0  0  0  0  0  0  0  0  0  0  0
  -12.5970  -16.8170   38.4000 C   0  0  0  0  0  3  0  0  0  0  0  0
  -11.8000  -17.3890   37.2650 O   0  0  0  0  0  1  0  0  0  0  0  0
   -9.3690  -16.2290   39.3780 H   0  0  0  0  0  0  0  0  0  0  0  0
  -11.8860  -15.8090   40.3000 H   0  0  0  0  0  0  0  0  0  0  0  0
   -9.1950  -17.6150   36.7100 C   0  0  0  0  0  2  0  0  0  0  0  0
   -8.4900  -18.3340   37.0710 H   0  0  0  0  0  0  0  0  0  0  0  0
   -9.3100  -18.0320   37.6880 H   0  0  0  0  0  0  0  0  0  0  0  0
   -9.0330  -17.0300   35.3380 N   0  0  0  0  0  1  0  0  0  0  0  0
   -8.3100  -17.3870   34.7130 H   0  0  0  0  0  0  0  0  0  0  0  0
   -9.9350  -15.9200   34.8860 C   0  0  0  0  0  2  0  0  0  0  0  0
   -9.8630  -14.9540   35.3380 H   0  0  0  0  0  0  0  0  0  0  0  0
   -9.2200  -15.7450   35.6610 H   0  0  0  0  0  0  0  0  0  0  0  0
  -10.9380  -16.1660   33.7980 C   0  0  0  0  0  3  0  0  0  0  0  0
  -10.8900  -17.0640   33.2180 H   0  0  0  0  0  0  0  0  0  0  0  0
  -10.1740  -16.8890   33.9940 H   0  0  0  0  0  0  0  0  0  0  0  0
  -12.0100  -15.1530   33.5230 S   0  0  2  0  0  0  0  0  0  0  0  0
  -12.7450  -15.5970   34.7520 O   0  0  0  0  0  0  0  0  0  0  0  0
  -11.2740  -14.7090   32.2940 O   0  0  0  0  0  0  0  0  0  0  0  0
  -13.0800  -14.1390   33.2480 C   0  0  0  0  0  0  0  0  0  0  0  0
  -13.0080  -13.5030   32.3900 H   0  0  0  0  0  0  0  0  0  0  0  0
  -13.9160  -14.0520   33.9090 H   0  0  0  0  0  0  0  0  0  0  0  0
  -13.8450  -13.4160   33.0520 H   0  0  0  0  0  0  0  0  0  0  0  0
  1  2  1  0
  2  3  2  0
  2 12  1  0
  3 13  1  0
  4  5  1  0
  4  3  1  0
  6 14  1  0
  6  5  2  0
  7  6  1  0
  8  7  2  0
  8 10  1  0
  9  8  1  0
 10  4  2  0
 11 10  1  0
 11  1  2  0
 15  9  1  0
 16 11  1  0
 17 23  1  0
 17  9  1  0
 18 17  2  0
 19 20  2  0
 19 18  1  0
 20 21  1  0
 21 22  1  0
 21 23  2  0
 23 26  1  0
 24 18  1  0
 25 19  1  0
 27 20  1  0
 28 29  1  0
 28 27  1  0
 30 28  1  0
 31 28  1  0
 32 37  1  0
 32 31  2  0
 33 32  1  0
 34 33  2  0
 34 35  1  0
 35 36  2  0
 36 31  1  0
 36 41  1  0
 38 33  1  0
 39 34  1  0
 40 35  1  0
 43 47  1  0
 43 44  2  0
 44 48  1  0
 45 46  1  0
 45  1  1  0
 45 44  1  0
 49 50  1  0
 49 51  1  0
 53 52  1  0
 54 55  1  0
 54 56  1  0
 57 59  1  0
 58 57  1  0
 60 57  1  0
 60 61  2  0
 62 60  2  0
 63 60  1  0
 63 65  1  0
 64 63  1  0
 66 63  1  0
M  END
>  <minimizedAffinity>  (320) 
-9.41274834

$$$$

     RDKit          3D

 70 65  0  0  1  0  0  0  0  0999 V2000
  -14.6470  -15.3710   35.8860 C   0  0  0  0  0  3  0  0  0  0  0  0
  -15.8660  -14.8150   35.2150 C   0  0  0  0  0  0  0  0  0  0  0  0
  -15.7520  -14.1780   33.8600 C   0  0  0  0  0  0  0  0  0  0  0  0
  -14.4180  -14.1000   33.1790 C   0  0  0  0  0  0  0  0  0  0  0  0
  -13.1980  -14.6570   33.8520 C   0  0  0  0  0  0  0  0  0  0  0  0
  -13.3120  -15.2930   35.2050 C   0  0  0  0  0  0  0  0  0  0  0  0
  -16.7840  -14.8690   35.6830 H   0  0  0  0  0  0  0  0  0  0  0  0
  -16.5910  -13.7960   33.3980 H   0  0  0  0  0  0  0  0  0  0  0  0
  -12.4730  -15.6760   35.6680 H   0  0  0  0  0  0  0  0  0  0  0  0
  -14.6490  -15.8230   39.8290 N   0  0  0  0  0 15  0  0  0  0  0  0
  -14.9900  -17.2800   39.9470 C   0  0  0  0  0  2  0  0  0  0  0  0
  -15.2160  -18.0990   38.7120 C   0  0  0  0  0  2  0  0  0  0  0  0
  -15.1020  -17.4630   37.3580 C   0  0  0  0  0  2  0  0  0  0  0  0
  -14.7610  -16.0080   37.2410 C   0  0  0  0  0  1  0  0  0  0  0  0
  -14.5350  -15.1880   38.4750 C   0  0  0  0  0  2  0  0  0  0  0  0
  -15.0710  -17.7330   40.9140 H   0  0  0  0  0  0  0  0  0  0  0  0
  -15.2330  -18.3180   40.0320 H   0  0  0  0  0  0  0  0  0  0  0  0
  -15.4590  -19.1380   38.7960 H   0  0  0  0  0  0  0  0  0  0  0  0
  -15.3770  -18.6850   37.8310 H   0  0  0  0  0  0  0  0  0  0  0  0
  -15.2630  -18.0490   36.4770 H   0  0  0  0  0  0  0  0  0  0  0  0
  -15.0200  -17.0110   36.3930 H   0  0  0  0  0  0  0  0  0  0  0  0
  -14.9220  -16.5930   36.3590 H   0  0  0  0  0  0  0  0  0  0  0  0
  -14.2920  -14.1490   38.3910 H   0  0  0  0  0  0  0  0  0  0  0  0
  -14.3730  -14.6030   39.3570 H   0  0  0  0  0  0  0  0  0  0  0  0
  -14.4230  -15.0030   41.0650 C   0  0  0  0  0  2  0  0  0  0  0  0
  -15.0730  -14.1830   41.2890 H   0  0  0  0  0  0  0  0  0  0  0  0
  -15.2340  -14.7690   40.4070 H   0  0  0  0  0  0  0  0  0  0  0  0
  -13.2860  -15.3330   41.9850 C   0  0  0  0  0  3  0  0  0  0  0  0
  -13.4250  -16.0390   42.7770 H   0  0  0  0  0  0  0  0  0  0  0  0
  -14.2370  -15.8030   42.1210 H   0  0  0  0  0  0  0  0  0  0  0  0
  -11.9520  -14.6730   41.7950 C   0  0  0  0  0  0  0  0  0  0  0  0
  -11.8120  -13.9670   41.0040 H   0  0  0  0  0  0  0  0  0  0  0  0
  -11.1400  -14.9070   42.4520 H   0  0  0  0  0  0  0  0  0  0  0  0
  -11.0000  -14.2020   41.6600 H   0  0  0  0  0  0  0  0  0  0  0  0
  -14.3030  -13.4640   31.8260 N   0  0  0  0  0  0  0  0  0  0  0  0
  -15.4690  -12.7170   31.2470 C   0  0  0  0  0  0  0  0  0  0  0  0
  -16.7480  -12.6070   32.0210 N   0  0  0  0  0  0  0  0  0  0  0  0
  -17.9130  -11.8600   31.4430 C   0  0  0  0  0  3  0  0  0  0  0  0
  -17.7990  -11.2250   30.0890 C   0  0  0  0  0  0  0  0  0  0  0  0
  -18.7710  -10.4310   29.2670 C   0  0  0  0  0  0  0  0  0  0  0  0
  -18.0930  -10.0510   27.9840 C   0  0  0  0  0  0  0  0  0  0  0  0
  -16.7010  -10.6100   28.0140 N   0  0  0  0  0  0  0  0  0  0  0  0
  -16.5200  -11.3350   29.3140 C   0  0  0  0  0  0  0  0  0  0  0  0
  -15.3540  -12.0810   29.8930 N   0  0  0  0  0  2  0  0  0  0  0  0
  -13.4640  -13.5360   31.3170 H   0  0  0  0  0  0  0  0  0  0  0  0
  -19.7380  -10.1890   29.5370 H   0  0  0  0  0  0  0  0  0  0  0  0
  -18.5100   -9.5020   27.2170 H   0  0  0  0  0  0  0  0  0  0  0  0
  -16.0250  -10.5170   27.3030 H   0  0  0  0  0  0  0  0  0  0  0  0
  -19.1930  -11.7500   32.2170 N   0  0  0  0  0  0  0  0  0  0  0  0
  -20.0280  -11.5100   31.7560 H   0  0  0  0  0  0  0  0  0  0  0  0
  -19.1990  -12.0040   33.6960 C   0  0  0  0  0  0  0  0  0  0  0  0
  -18.9640  -10.8730   34.6520 C   0  0  0  0  0  0  0  0  0  0  0  0
  -18.9700  -11.1270   36.1300 C   0  0  0  0  0  0  0  0  0  0  0  0
  -18.7340   -9.9960   37.0870 F   0  0  0  0  0  0  0  0  0  0  0  0
  -19.2110  -12.5120   36.6520 C   0  0  0  0  0  0  0  0  0  0  0  0
  -19.4460  -13.6440   35.6950 C   0  0  0  0  0  0  0  0  0  0  0  0
  -19.4400  -13.3890   34.2170 C   0  0  0  0  0  0  0  0  0  0  0  0
  -18.7970   -9.9190   34.2930 H   0  0  0  0  0  0  0  0  0  0  0  0
  -19.2150  -12.6880   37.6690 H   0  0  0  0  0  0  0  0  0  0  0  0
  -19.6120  -14.5970   36.0540 H   0  0  0  0  0  0  0  0  0  0  0  0
  -19.6760  -14.5200   33.2600 C   0  0  0  0  0  0  0  0  0  0  0  0
  -19.7930  -15.9240   33.7740 N   0  0  0  0  0  0  0  0  0  0  0  0
  -19.7940  -14.2470   31.7910 O   0  0  0  0  0  0  0  0  0  0  0  0
  -19.9480  -16.6670   33.1460 H   0  0  0  0  0  0  0  0  0  0  0  0
  -19.7160  -16.1040   34.7390 H   0  0  0  0  0  0  0  0  0  0  0  0
  -11.8640  -14.5770   33.1700 O   0  0  0  0  0  0  0  0  0  0  0  0
  -10.8080  -15.6010   33.4650 C   0  0  0  0  0  0  0  0  0  0  0  0
   -9.8570  -15.5440   32.9790 H   0  0  0  0  0  0  0  0  0  0  0  0
  -11.0060  -16.3880   34.1620 H   0  0  0  0  0  0  0  0  0  0  0  0
  -10.0550  -16.3320   33.6750 H   0  0  0  0  0  0  0  0  0  0  0  0
  2  7  1  0
  2  1  1  0
  3  2  2  0
  4  5  2  0
  4  3  1  0
  5  6  1  0
  6  9  1  0
  6  1  2  0
  8  3  1  0
 11 17  1  0
 11 16  1  0
 12 18  1  0
 15 24  1  0
 19 12  1  0
 20 13  1  0
 21 13  1  0
 22 14  1  0
 23 15  1  0
 25 26  1  0
 27 25  1  0
 28 30  1  0
 28 29  1  0
 31 28  1  0
 31 33  1  0
 32 31  1  0
 34 31  1  0
 35  4  1  0
 36 35  1  0
 36 37  2  0
 38 37  1  0
 38 49  1  0
 39 38  1  0
 40 46  1  0
 40 39  1  0
 41 42  1  0
 41 40  2  0
 42 43  1  0
 43 44  1  0
 43 39  2  0
 44 36  1  0
 45 35  1  0
 47 41  1  0
 48 42  1  0
 49 51  1  0
 50 49  1  0
 51 57  2  0
 51 52  1  0
 52 53  2  0
 53 55  1  0
 53 54  1  0
 55 59  1  0
 56 60  1  0
 56 55  2  0
 57 56  1  0
 58 52  1  0
 61 62  1  0
 61 57  1  0
 62 65  1  0
 63 61  2  0
 64 62  1  0
 66 67  1  0
 66  5  1  0
 67 70  1  0
 67 69  1  0
 68 67  1  0
M  END
>  <minimizedAffinity>  (321) 
-8.69878197

$$$$

     RDKit          3D

 42 45  0  0  1  0  0  0  0  0999 V2000
  -17.5670  -14.8540   35.1480 N   0  0  0  0  0  0  0  0  0  0  0  0
  -16.1670  -15.3530   34.9440 N   0  0  0  0  0  0  0  0  0  0  0  0
  -15.8300  -16.2650   36.0850 C   0  0  0  0  0  0  0  0  0  0  0  0
  -17.0210  -16.3300   36.9950 C   0  0  0  0  0  0  0  0  0  0  0  0
  -17.2660  -17.0700   38.2770 C   0  0  0  0  0  3  0  0  0  0  0  0
  -18.5860  -16.9380   38.9780 N   0  0  0  0  0  0  0  0  0  0  0  0
  -19.6590  -16.0650   38.3980 C   0  0  0  0  0  0  0  0  0  0  0  0
  -19.4140  -15.3250   37.1170 N   0  0  0  0  0  2  0  0  0  0  0  0
  -18.0950  -15.4570   36.4150 C   0  0  0  0  0  0  0  0  0  0  0  0
  -14.9350  -16.7620   36.2220 H   0  0  0  0  0  0  0  0  0  0  0  0
  -20.5670  -15.9740   38.8810 H   0  0  0  0  0  0  0  0  0  0  0  0
  -19.3720  -13.3890   31.9310 C   0  0  0  0  0  0  0  0  0  0  0  0
  -19.7930  -12.0390   32.4320 C   0  0  0  0  0  0  0  0  0  0  0  0
  -19.4720  -11.6270   33.8380 C   0  0  0  0  0  0  0  0  0  0  0  0
  -18.7300  -12.5660   34.7440 C   0  0  0  0  0  0  0  0  0  0  0  0
  -18.3090  -13.9150   34.2420 C   0  0  0  0  0  0  0  0  0  0  0  0
  -18.6300  -14.3270   32.8370 C   0  0  0  0  0  0  0  0  0  0  0  0
  -20.3040  -11.3930   31.8100 H   0  0  0  0  0  0  0  0  0  0  0  0
  -19.7610  -10.6990   34.1830 H   0  0  0  0  0  0  0  0  0  0  0  0
  -18.5090  -12.2830   35.7110 H   0  0  0  0  0  0  0  0  0  0  0  0
  -18.3410  -15.2560   32.4910 H   0  0  0  0  0  0  0  0  0  0  0  0
  -19.6930  -13.8010   30.5250 O   0  0  0  0  0  0  0  0  0  0  0  0
  -18.9540  -13.1820   29.3750 C   0  0  0  0  0  0  0  0  0  0  0  0
  -18.1980  -12.4470   29.5580 H   0  0  0  0  0  0  0  0  0  0  0  0
  -19.1830  -13.4750   28.3720 H   0  0  0  0  0  0  0  0  0  0  0  0
  -18.4270  -12.7400   28.5550 H   0  0  0  0  0  0  0  0  0  0  0  0
  -16.1930  -17.9420   38.8560 N   0  0  0  0  0  0  0  0  0  0  0  0
  -16.4220  -18.6260   39.5270 H   0  0  0  0  0  0  0  0  0  0  0  0
  -14.7690  -17.7740   38.4140 N   0  0  0  0  0  0  0  0  0  0  0  0
  -13.8960  -16.7480   39.0740 C   0  0  0  0  0  0  0  0  0  0  0  0
  -14.2740  -16.1580   39.8310 H   0  0  0  0  0  0  0  0  0  0  0  0
  -12.4720  -16.5790   38.6320 C   0  0  0  0  0  0  0  0  0  0  0  0
  -12.1280  -16.6360   37.1730 C   0  0  0  0  0  0  0  0  0  0  0  0
  -10.7050  -16.4670   36.7310 C   0  0  0  0  0  0  0  0  0  0  0  0
   -9.6250  -16.2420   37.7480 C   0  0  0  0  0  0  0  0  0  0  0  0
   -8.2020  -16.0740   37.3060 F   0  0  0  0  0  0  0  0  0  0  0  0
   -9.9690  -16.1860   39.2070 C   0  0  0  0  0  0  0  0  0  0  0  0
  -11.3930  -16.3540   39.6490 C   0  0  0  0  0  0  0  0  0  0  0  0
  -12.8710  -16.7910   36.4730 H   0  0  0  0  0  0  0  0  0  0  0  0
  -10.4680  -16.5060   35.7270 H   0  0  0  0  0  0  0  0  0  0  0  0
   -9.2270  -16.0310   39.9070 H   0  0  0  0  0  0  0  0  0  0  0  0
  -11.6300  -16.3150   40.6530 H   0  0  0  0  0  0  0  0  0  0  0  0
  1  9  1  0
  2  1  1  0
  2  3  2  0
  3 10  1  0
  3  4  1  0
  4  5  1  0
  5 27  1  0
  5  6  1  0
  7 11  1  0
  7  6  2  0
  8  7  1  0
  9  4  2  0
  9  8  1  0
 12 13  2  0
 12 17  1  0
 13 14  1  0
 14 19  1  0
 14 15  2  0
 15 20  1  0
 16 15  1  0
 16  1  1  0
 17 16  2  0
 18 13  1  0
 21 17  1  0
 22 12  1  0
 23 24  1  0
 23 22  1  0
 25 23  1  0
 26 23  1  0
 27 28  1  0
 29 27  1  0
 29 30  2  0
 30 31  1  0
 32 30  1  0
 32 38  1  0
 33 32  2  0
 34 33  1  0
 34 35  2  0
 35 37  1  0
 36 35  1  0
 37 38  2  0
 37 41  1  0
 38 42  1  0
 39 33  1  0
 40 34  1  0
M  END
>  <minimizedAffinity>  (322) 
-7.97040796

$$$$

     RDKit          3D

 40 39  0  0  0  0  0  0  0  0999 V2000
  -14.1800  -17.5430   37.7290 N   0  0  0  0  0  0  0  0  0  0  0  0
  -13.0010  -16.7130   38.1420 C   0  0  0  0  0  0  0  0  0  0  0  0
  -13.0440  -15.9320   39.4220 O   0  0  0  0  0  0  0  0  0  0  0  0
  -14.1520  -18.0550   36.8880 H   0  0  0  0  0  0  0  0  0  0  0  0
  -16.7550  -17.0450   38.2470 C   0  0  0  0  0  0  0  0  0  0  0  0
  -15.4030  -17.5920   38.5960 C   0  0  0  0  0  0  0  0  0  0  0  0
  -15.4880  -18.1990   39.9660 S   0  0  0  0  0  0  0  0  0  0  0  0
  -16.8930  -18.0250   40.4620 C   0  0  0  0  0  3  0  0  0  0  0  0
  -17.6760  -17.3130   39.4000 C   0  0  0  0  0  0  0  0  0  0  0  0
  -19.1260  -16.9990   39.6200 C   0  0  0  0  0  3  0  0  0  0  0  0
  -19.7930  -17.3990   40.9020 C   0  0  0  0  0  2  0  0  0  0  0  0
  -19.0100  -18.1120   41.9650 C   0  0  0  0  0  2  0  0  0  0  0  0
  -17.5600  -18.4250   41.7450 C   0  0  0  0  0  2  0  0  0  0  0  0
  -19.6840  -16.4910   38.8620 H   0  0  0  0  0  0  0  0  0  0  0  0
  -20.1610  -16.7760   39.7770 H   0  0  0  0  0  0  0  0  0  0  0  0
  -20.8280  -17.1760   41.0590 H   0  0  0  0  0  0  0  0  0  0  0  0
  -20.2700  -17.6840   41.8170 H   0  0  0  0  0  0  0  0  0  0  0  0
  -19.4870  -18.3970   42.8800 H   0  0  0  0  0  0  0  0  0  0  0  0
  -18.4520  -18.6200   42.7230 H   0  0  0  0  0  0  0  0  0  0  0  0
  -17.0020  -18.9330   42.5030 H   0  0  0  0  0  0  0  0  0  0  0  0
  -16.5260  -18.6480   41.5880 H   0  0  0  0  0  0  0  0  0  0  0  0
  -17.4870  -15.6590   35.6890 N   0  0  0  0  0  1  0  0  0  0  0  0
  -17.1210  -16.3520   36.9680 C   0  0  0  0  0  2  0  0  0  0  0  0
  -11.7780  -16.6630   37.2740 C   0  0  0  0  0  0  0  0  0  0  0  0
  -10.5240  -17.3640   37.7050 C   0  0  0  0  0  0  0  0  0  0  0  0
   -9.3010  -17.3140   36.8370 C   0  0  0  0  0  0  0  0  0  0  0  0
   -9.3330  -16.5630   35.5390 C   0  0  0  0  0  0  0  0  0  0  0  0
  -10.5870  -15.8620   35.1090 C   0  0  0  0  0  0  0  0  0  0  0  0
  -10.6180  -15.1110   33.8110 C   0  0  0  0  0  0  0  0  0  0  0  0
  -11.8720  -14.4100   33.3800 C   0  0  0  0  0  0  0  0  0  0  0  0
  -13.0950  -14.4590   34.2480 C   0  0  0  0  0  0  0  0  0  0  0  0
  -13.0640  -15.2110   35.5460 C   0  0  0  0  0  0  0  0  0  0  0  0
  -11.8100  -15.9120   35.9760 C   0  0  0  0  0  0  0  0  0  0  0  0
  -10.5020  -17.8810   38.5980 H   0  0  0  0  0  0  0  0  0  0  0  0
   -8.4380  -17.7970   37.1340 H   0  0  0  0  0  0  0  0  0  0  0  0
   -8.4910  -16.5290   34.9430 H   0  0  0  0  0  0  0  0  0  0  0  0
   -9.7770  -15.0770   33.2140 H   0  0  0  0  0  0  0  0  0  0  0  0
  -11.8940  -13.8930   32.4870 H   0  0  0  0  0  0  0  0  0  0  0  0
  -13.9580  -13.9770   33.9510 H   0  0  0  0  0  0  0  0  0  0  0  0
  -13.9050  -15.2450   36.1430 H   0  0  0  0  0  0  0  0  0  0  0  0
  1  2  1  0
  1  6  1  0
  2  3  2  0
  4  1  1  0
  5  6  2  0
  5  9  1  0
  6  7  1  0
  7  8  1  0
  9 10  1  0
  9  8  2  0
 10 15  1  0
 11 16  1  0
 11 17  1  0
 12 19  1  0
 12 18  1  0
 13 20  1  0
 14 10  1  0
 21 13  1  0
 22 23  1  0
 23  5  1  0
 24 25  1  0
 24  2  1  0
 25 34  1  0
 26 35  1  0
 26 25  2  0
 27 26  1  0
 28 27  2  0
 28 33  1  0
 29 28  1  0
 30 29  2  0
 30 31  1  0
 31 32  2  0
 32 33  1  0
 32 40  1  0
 33 24  2  0
 36 27  1  0
 37 29  1  0
 38 30  1  0
 39 31  1  0
M  END
>  <minimizedAffinity>  (323) 
-8.84102058

$$$$

     RDKit          3D

 41 44  0  0  1  0  0  0  0  0999 V2000
  -15.8990  -14.1960   34.1140 N   0  0  0  0  0  0  0  0  0  0  0  0
  -14.4670  -14.6440   34.0950 C   0  0  0  0  0  0  0  0  0  0  0  0
  -14.2660  -15.6010   35.2320 N   0  0  0  0  0  0  0  0  0  0  0  0
  -15.5730  -15.7450   35.9540 C   0  0  0  0  0  0  0  0  0  0  0  0
  -15.9750  -16.5540   37.1510 C   0  0  0  0  0  3  0  0  0  0  0  0
  -17.3860  -16.4950   37.6580 N   0  0  0  0  0  0  0  0  0  0  0  0
  -18.3950  -15.6260   36.9660 C   0  0  0  0  0  0  0  0  0  0  0  0
  -17.9930  -14.8170   35.7690 N   0  0  0  0  0  2  0  0  0  0  0  0
  -16.5820  -14.8760   35.2630 C   0  0  0  0  0  0  0  0  0  0  0  0
  -13.7470  -14.3460   33.4180 H   0  0  0  0  0  0  0  0  0  0  0  0
  -19.3660  -15.5860   37.3150 H   0  0  0  0  0  0  0  0  0  0  0  0
  -18.3630  -12.7020   31.3850 C   0  0  0  0  0  0  0  0  0  0  0  0
  -17.8080  -11.3170   31.2300 C   0  0  0  0  0  0  0  0  0  0  0  0
  -16.6170  -10.8920   32.0350 C   0  0  0  0  0  0  0  0  0  0  0  0
  -15.9800  -11.8520   32.9970 C   0  0  0  0  0  0  0  0  0  0  0  0
  -16.5350  -13.2360   33.1520 C   0  0  0  0  0  0  0  0  0  0  0  0
  -17.7270  -13.6620   32.3470 C   0  0  0  0  0  0  0  0  0  0  0  0
  -18.2460  -10.6570   30.5680 H   0  0  0  0  0  0  0  0  0  0  0  0
  -16.2350   -9.9400   31.9290 H   0  0  0  0  0  0  0  0  0  0  0  0
  -15.1610  -11.5590   33.5510 H   0  0  0  0  0  0  0  0  0  0  0  0
  -18.1090  -14.6140   32.4530 H   0  0  0  0  0  0  0  0  0  0  0  0
  -19.5550  -13.1280   30.5790 O   0  0  0  0  0  0  0  0  0  0  0  0
  -19.4400  -13.2750   29.0900 C   0  0  0  0  0  0  0  0  0  0  0  0
  -18.5070  -13.0770   28.6040 H   0  0  0  0  0  0  0  0  0  0  0  0
  -20.2880  -13.5790   28.5150 H   0  0  0  0  0  0  0  0  0  0  0  0
  -19.3570  -13.3810   28.0290 H   0  0  0  0  0  0  0  0  0  0  0  0
  -14.9660  -17.4220   37.8420 N   0  0  0  0  0  0  0  0  0  0  0  0
  -15.2540  -18.0470   38.5470 H   0  0  0  0  0  0  0  0  0  0  0  0
  -13.5180  -17.3400   37.4600 N   0  0  0  0  0  0  0  0  0  0  0  0
  -12.5600  -16.5630   38.3140 C   0  0  0  0  0  0  0  0  0  0  0  0
  -12.8970  -16.0860   39.1650 H   0  0  0  0  0  0  0  0  0  0  0  0
  -11.1120  -16.4800   37.9320 C   0  0  0  0  0  0  0  0  0  0  0  0
  -10.0550  -16.4600   38.9960 C   0  0  0  0  0  0  0  0  0  0  0  0
   -8.6070  -16.3770   38.6140 C   0  0  0  0  0  0  0  0  0  0  0  0
   -8.2160  -16.3150   37.1670 N   0  0  0  0  0  0  0  0  0  0  0  0
   -9.2730  -16.3350   36.1030 C   0  0  0  0  0  0  0  0  0  0  0  0
  -10.7210  -16.4180   36.4850 C   0  0  0  0  0  0  0  0  0  0  0  0
  -10.3240  -16.5030   39.9920 H   0  0  0  0  0  0  0  0  0  0  0  0
   -7.8800  -16.3630   39.3460 H   0  0  0  0  0  0  0  0  0  0  0  0
   -9.0030  -16.2920   35.1070 H   0  0  0  0  0  0  0  0  0  0  0  0
  -11.4480  -16.4320   35.7530 H   0  0  0  0  0  0  0  0  0  0  0  0
  1  9  1  0
  2  1  1  0
  2  3  2  0
  3  4  1  0
  4  5  1  0
  5  6  1  0
  5 27  1  0
  7 11  1  0
  7  6  2  0
  8  7  1  0
  9  8  1  0
  9  4  2  0
 10  2  1  0
 12 17  1  0
 13 12  2  0
 13 14  1  0
 14 15  2  0
 15 16  1  0
 15 20  1  0
 16  1  1  0
 17 21  1  0
 17 16  2  0
 18 13  1  0
 19 14  1  0
 22 12  1  0
 23 22  1  0
 24 23  1  0
 25 23  1  0
 26 23  1  0
 27 28  1  0
 29 27  1  0
 29 30  2  0
 30 31  1  0
 32 30  1  0
 32 33  1  0
 33 38  1  0
 34 33  2  0
 34 39  1  0
 35 34  1  0
 36 37  1  0
 36 35  2  0
 37 32  2  0
 40 36  1  0
 41 37  1  0
M  END
>  <minimizedAffinity>  (324) 
-7.42738724

$$$$

     RDKit          3D

 33 32  0  0  0  0  0  0  0  0999 V2000
  -17.9230  -15.9090   36.8020 O   0  0  0  0  0  1  0  0  0  0  0  0
  -17.0850  -16.5880   37.8450 C   0  0  0  0  0  2  0  0  0  0  0  0
  -15.5910  -16.6030   37.7140 N   0  0  0  0  0  0  0  0  0  0  0  0
  -14.9360  -15.9390   36.5400 C   0  0  0  0  0  0  0  0  0  0  0  0
  -15.6380  -15.2240   35.4250 N   0  0  0  0  0  0  0  0  0  0  0  0
  -14.5990  -14.7150   34.4700 N   0  0  0  0  0  0  0  0  0  0  0  0
  -13.2520  -15.1160   34.9970 C   0  0  0  0  0  0  0  0  0  0  0  0
  -11.8630  -14.8900   34.4760 N   0  0  0  0  0  0  0  0  0  0  0  0
  -10.6830  -15.4200   35.2350 N   0  0  0  0  0  0  0  0  0  0  0  0
  -10.8910  -16.1760   36.5140 C   0  0  0  0  0  0  0  0  0  0  0  0
  -12.2800  -16.4020   37.0340 C   0  0  0  0  0  0  0  0  0  0  0  0
  -13.4600  -15.8720   36.2760 C   0  0  0  0  0  0  0  0  0  0  0  0
  -15.0410  -17.0490   38.3980 H   0  0  0  0  0  0  0  0  0  0  0  0
  -14.7690  -14.2080   33.6440 H   0  0  0  0  0  0  0  0  0  0  0  0
  -12.4230  -16.9220   37.9140 H   0  0  0  0  0  0  0  0  0  0  0  0
   -9.7100  -16.7060   37.2730 C   0  0  0  0  0  0  0  0  0  0  0  0
   -9.6920  -18.1350   37.7270 C   0  0  0  0  0  0  0  0  0  0  0  0
   -8.5110  -18.6650   38.4860 C   0  0  0  0  0  0  0  0  0  0  0  0
   -7.3490  -17.7660   38.7900 C   0  0  0  0  0  0  0  0  0  0  0  0
   -7.3680  -16.3370   38.3350 N   0  0  0  0  0  0  0  0  0  0  0  0
   -8.5490  -15.8070   37.5760 C   0  0  0  0  0  0  0  0  0  0  0  0
  -10.4910  -18.7540   37.5190 H   0  0  0  0  0  0  0  0  0  0  0  0
   -8.4980  -19.6490   38.7990 H   0  0  0  0  0  0  0  0  0  0  0  0
   -6.5370  -18.1310   39.3120 H   0  0  0  0  0  0  0  0  0  0  0  0
   -8.5620  -14.8240   37.2630 H   0  0  0  0  0  0  0  0  0  0  0  0
  -17.7420  -17.2530   39.0190 C   0  0  0  0  0 15  0  0  0  0  0  0
  -17.6670  -17.7870   40.4180 C   0  0  0  0  0  3  0  0  0  0  0  0
  -18.9540  -17.8680   39.6520 C   0  0  0  0  0  2  0  0  0  0  0  0
  -18.2100  -17.7260   39.8560 H   0  0  0  0  0  0  0  0  0  0  0  0
  -17.1070  -17.9740   41.3100 H   0  0  0  0  0  0  0  0  0  0  0  0
  -18.3570  -18.2600   41.0860 H   0  0  0  0  0  0  0  0  0  0  0  0
  -19.9840  -18.1550   39.5970 H   0  0  0  0  0  0  0  0  0  0  0  0
  -19.2720  -17.5740   38.6740 H   0  0  0  0  0  0  0  0  0  0  0  0
  1  2  1  0
  3  2  1  0
  3 13  1  0
  4  3  1  0
  5  4  2  0
  6  7  1  0
  6  5  1  0
  7 12  1  0
  8  7  2  0
  8  9  1  0
  9 10  2  0
 10 11  1  0
 10 16  1  0
 11 15  1  0
 12  4  1  0
 12 11  2  0
 14  6  1  0
 16 21  2  0
 16 17  1  0
 17 18  2  0
 18 19  1  0
 18 23  1  0
 19 24  1  0
 20 19  2  0
 21 20  1  0
 22 17  1  0
 25 21  1  0
 27 31  1  0
 27 30  1  0
 29 27  1  0
 32 28  1  0
 33 28  1  0
M  END
>  <minimizedAffinity>  (325) 
-8.83300209

$$$$

     RDKit          3D

 67 70  0  0  1  0  0  0  0  0999 V2000
  -11.4660  -15.3050   35.3000 C   0  0  0  0  0  0  0  0  0  0  0  0
  -10.6960  -16.0220   36.3690 C   0  0  0  0  0  0  0  0  0  0  0  0
  -11.3970  -16.5030   37.6050 C   0  0  0  0  0  0  0  0  0  0  0  0
  -12.8690  -16.2670   37.7720 C   0  0  0  0  0  0  0  0  0  0  0  0
  -13.6400  -15.5500   36.7030 C   0  0  0  0  0  0  0  0  0  0  0  0
  -12.9390  -15.0690   35.4670 C   0  0  0  0  0  0  0  0  0  0  0  0
   -9.6830  -16.1840   36.2540 H   0  0  0  0  0  0  0  0  0  0  0  0
  -14.6530  -15.3880   36.8180 H   0  0  0  0  0  0  0  0  0  0  0  0
  -13.7090  -14.3520   34.3980 N   0  0  0  0  0  0  0  0  0  0  0  0
  -15.2070  -14.3030   34.4590 C   0  0  0  0  0  0  0  0  0  0  0  0
  -15.9780  -13.5870   33.3910 N   0  0  0  0  0  0  0  0  0  0  0  0
  -17.4760  -13.5380   33.4510 C   0  0  0  0  0  3  0  0  0  0  0  0
  -18.2030  -14.2060   34.5800 C   0  0  0  0  0  0  0  0  0  0  0  0
  -19.6630  -14.3240   34.9030 C   0  0  0  0  0  0  0  0  0  0  0  0
  -19.7950  -15.1150   36.1710 C   0  0  0  0  0  0  0  0  0  0  0  0
  -18.4160  -15.4840   36.6320 N   0  0  0  0  0  0  0  0  0  0  0  0
  -17.4330  -14.9230   35.6480 C   0  0  0  0  0  0  0  0  0  0  0  0
  -15.9340  -14.9710   35.5880 N   0  0  0  0  0  2  0  0  0  0  0  0
  -13.2320  -13.9130   33.6570 H   0  0  0  0  0  0  0  0  0  0  0  0
  -20.4410  -13.9310   34.3500 H   0  0  0  0  0  0  0  0  0  0  0  0
  -20.6780  -15.3610   36.6440 H   0  0  0  0  0  0  0  0  0  0  0  0
  -18.1950  -16.0050   37.4390 H   0  0  0  0  0  0  0  0  0  0  0  0
  -18.2470  -12.8210   32.3820 N   0  0  0  0  0  0  0  0  0  0  0  0
  -19.2090  -12.9970   32.2690 H   0  0  0  0  0  0  0  0  0  0  0  0
  -17.5540  -11.8370   31.4870 C   0  0  0  0  0  0  0  0  0  0  0  0
  -16.6810  -10.7700   32.0800 C   0  0  0  0  0  0  0  0  0  0  0  0
  -15.9880   -9.7860   31.1860 C   0  0  0  0  0  0  0  0  0  0  0  0
  -16.1660   -9.8680   29.6990 C   0  0  0  0  0  0  0  0  0  0  0  0
  -17.0390  -10.9340   29.1060 C   0  0  0  0  0  0  0  0  0  0  0  0
  -17.2180  -11.0170   27.6200 F   0  0  0  0  0  0  0  0  0  0  0  0
  -17.7320  -11.9190   30.0010 C   0  0  0  0  0  0  0  0  0  0  0  0
  -16.5580  -10.7140   33.1040 H   0  0  0  0  0  0  0  0  0  0  0  0
  -15.3870   -9.0520   31.5930 H   0  0  0  0  0  0  0  0  0  0  0  0
  -15.6890   -9.1910   29.0830 H   0  0  0  0  0  0  0  0  0  0  0  0
  -18.6050  -12.9850   29.4080 C   0  0  0  0  0  0  0  0  0  0  0  0
  -18.2900  -13.5460   28.0540 N   0  0  0  0  0  0  0  0  0  0  0  0
  -19.7930  -13.4920   30.1710 O   0  0  0  0  0  0  0  0  0  0  0  0
  -17.5090  -13.2130   27.5530 H   0  0  0  0  0  0  0  0  0  0  0  0
  -18.8620  -14.2460   27.6640 H   0  0  0  0  0  0  0  0  0  0  0  0
  -10.6270  -17.2200   38.6730 C   0  0  0  0  0  0  0  0  0  0  0  0
   -9.5770  -17.3880   38.5540 H   0  0  0  0  0  0  0  0  0  0  0  0
  -11.1260  -17.5630   39.5540 H   0  0  0  0  0  0  0  0  0  0  0  0
  -10.0760  -17.7310   39.4350 H   0  0  0  0  0  0  0  0  0  0  0  0
  -13.5700  -16.7490   39.0070 N   0  0  0  0  0  0  0  0  0  0  0  0
  -14.7000  -17.7300   38.8950 C   0  0  0  0  0  0  0  0  0  0  0  0
  -15.1280  -18.2290   37.5460 O   0  0  0  0  0  0  0  0  0  0  0  0
  -13.1410  -16.2490   40.3550 C   0  0  0  0  0  0  0  0  0  0  0  0
  -12.3360  -15.5500   40.4350 H   0  0  0  0  0  0  0  0  0  0  0  0
  -13.6420  -16.5930   41.2370 H   0  0  0  0  0  0  0  0  0  0  0  0
  -12.8360  -15.8930   41.3170 H   0  0  0  0  0  0  0  0  0  0  0  0
  -15.4000  -18.2110   40.1300 C   0  0  0  0  0  0  0  0  0  0  0  0
  -15.0020  -19.0350   40.6840 H   0  0  0  0  0  0  0  0  0  0  0  0
  -15.9010  -18.5540   41.0110 H   0  0  0  0  0  0  0  0  0  0  0  0
  -16.6590  -17.5360   40.5880 N   0  0  0  0  0  0  0  0  0  0  0  0
  -16.6400  -16.6600   41.8060 C   0  0  0  0  0  0  0  0  0  0  0  0
  -15.7280  -16.5170   42.3470 H   0  0  0  0  0  0  0  0  0  0  0  0
  -17.5380  -16.1790   42.1330 H   0  0  0  0  0  0  0  0  0  0  0  0
  -16.6260  -16.0360   42.6740 H   0  0  0  0  0  0  0  0  0  0  0  0
  -17.9370  -17.7370   39.8300 C   0  0  0  0  0  0  0  0  0  0  0  0
  -18.8360  -17.2560   40.1570 H   0  0  0  0  0  0  0  0  0  0  0  0
  -17.9510  -18.3620   38.9610 H   0  0  0  0  0  0  0  0  0  0  0  0
  -18.8490  -17.8810   39.2880 H   0  0  0  0  0  0  0  0  0  0  0  0
  -10.7660  -14.8230   34.0640 O   0  0  0  0  0  0  0  0  0  0  0  0
  -10.8430  -15.6240   32.7980 C   0  0  0  0  0  0  0  0  0  0  0  0
  -10.3430  -15.2810   31.9170 H   0  0  0  0  0  0  0  0  0  0  0  0
  -11.3990  -16.5390   32.7770 H   0  0  0  0  0  0  0  0  0  0  0  0
  -10.8980  -16.1950   31.8950 H   0  0  0  0  0  0  0  0  0  0  0  0
  1  6  2  0
  1  2  1  0
  2  3  2  0
  3  4  1  0
  3 40  1  0
  4 44  1  0
  5  8  1  0
  5  4  2  0
  6  5  1  0
  7  2  1  0
  9 10  1  0
  9  6  1  0
 10 18  1  0
 11 12  1  0
 11 10  2  0
 12 23  1  0
 12 13  1  0
 13 14  1  0
 13 17  2  0
 14 15  2  0
 15 16  1  0
 15 21  1  0
 16 22  1  0
 17 16  1  0
 18 17  1  0
 19  9  1  0
 20 14  1  0
 24 23  1  0
 25 26  1  0
 25 23  1  0
 26 32  1  0
 27 33  1  0
 27 26  2  0
 28 27  1  0
 29 28  2  0
 29 31  1  0
 30 29  1  0
 31 25  2  0
 34 28  1  0
 35 31  1  0
 35 37  2  0
 36 35  1  0
 38 36  1  0
 39 36  1  0
 40 43  1  0
 40 42  1  0
 41 40  1  0
 44 47  1  0
 45 44  1  0
 45 51  1  0
 46 45  2  0
 47 48  1  0
 47 49  1  0
 47 50  1  0
 51 54  1  0
 51 52  1  0
 51 53  1  0
 54 55  1  0
 55 57  1  0
 55 56  1  0
 55 58  1  0
 59 60  1  0
 59 54  1  0
 61 59  1  0
 62 59  1  0
 63  1  1  0
 64 63  1  0
 65 64  1  0
 66 64  1  0
 67 64  1  0
M  END
>  <minimizedAffinity>  (326) 
-8.51785469

$$$$

     RDKit          3D

 38 39  0  0  0  0  0  0  0  0999 V2000
  -15.7540  -15.9600   35.8310 C   0  0  0  0  0  0  0  0  0  0  0  0
  -14.6730  -14.9470   36.0660 C   0  0  0  0  0  0  0  0  0  0  0  0
  -15.6790  -16.6220   35.0420 H   0  0  0  0  0  0  0  0  0  0  0  0
  -14.7470  -14.2860   36.8550 H   0  0  0  0  0  0  0  0  0  0  0  0
  -17.9980  -16.6400   39.0330 C   0  0  0  0  0  0  0  0  0  0  0  0
  -19.3230  -16.1160   38.5660 C   0  0  0  0  0  0  0  0  0  0  0  0
  -19.4590  -15.5400   37.1880 N   0  0  0  0  0  0  0  0  0  0  0  0
  -18.2690  -15.4880   36.2760 C   0  0  0  0  0  0  0  0  0  0  0  0
  -16.9440  -16.0120   36.7430 C   0  0  0  0  0  0  0  0  0  0  0  0
  -16.8080  -16.5880   38.1210 C   0  0  0  0  0  0  0  0  0  0  0  0
  -20.1420  -16.1510   39.1940 H   0  0  0  0  0  0  0  0  0  0  0  0
  -18.3630  -15.0920   35.3280 H   0  0  0  0  0  0  0  0  0  0  0  0
  -15.8950  -16.9480   38.4420 H   0  0  0  0  0  0  0  0  0  0  0  0
  -17.1910  -18.5430   40.6070 N   0  0  0  0  0  0  0  0  0  0  0  0
  -17.8620  -17.2150   40.4120 C   0  0  0  0  0  0  0  0  0  0  0  0
  -18.3960  -16.4640   41.5940 O   0  0  0  0  0  0  0  0  0  0  0  0
  -16.8400  -19.0360   39.8310 H   0  0  0  0  0  0  0  0  0  0  0  0
  -17.0550  -19.1180   41.9860 C   0  0  0  0  0  0  0  0  0  0  0  0
  -16.5770  -20.0650   42.1250 H   0  0  0  0  0  0  0  0  0  0  0  0
  -17.4370  -18.5820   42.8300 H   0  0  0  0  0  0  0  0  0  0  0  0
  -16.9580  -19.5290   42.9690 H   0  0  0  0  0  0  0  0  0  0  0  0
  -13.4830  -14.8960   35.1540 C   0  0  0  0  0  0  0  0  0  0  0  0
  -13.5710  -14.1650   33.8470 C   0  0  0  0  0  0  0  0  0  0  0  0
  -12.3810  -14.1130   32.9350 C   0  0  0  0  0  0  0  0  0  0  0  0
  -11.1030  -14.7920   33.3300 C   0  0  0  0  0  0  0  0  0  0  0  0
  -11.0150  -15.5230   34.6370 C   0  0  0  0  0  0  0  0  0  0  0  0
  -12.2050  -15.5750   35.5490 C   0  0  0  0  0  0  0  0  0  0  0  0
  -12.4410  -13.6100   32.0360 H   0  0  0  0  0  0  0  0  0  0  0  0
  -10.2840  -14.7560   32.7030 H   0  0  0  0  0  0  0  0  0  0  0  0
  -10.1360  -15.9900   34.9090 H   0  0  0  0  0  0  0  0  0  0  0  0
  -14.8490  -13.4860   33.4520 C   0  0  0  0  0  0  0  0  0  0  0  0
  -15.6970  -13.5230   34.1020 H   0  0  0  0  0  0  0  0  0  0  0  0
  -14.9110  -12.9650   32.5190 H   0  0  0  0  0  0  0  0  0  0  0  0
  -15.7600  -13.0020   33.1700 H   0  0  0  0  0  0  0  0  0  0  0  0
  -12.1170  -16.3050   36.8560 C   0  0  0  0  0  0  0  0  0  0  0  0
  -11.2050  -16.7900   37.1380 H   0  0  0  0  0  0  0  0  0  0  0  0
  -12.9660  -16.3420   37.5070 H   0  0  0  0  0  0  0  0  0  0  0  0
  -12.0540  -16.8270   37.7890 H   0  0  0  0  0  0  0  0  0  0  0  0
  1  2  2  0
  1  9  1  0
  2  4  1  0
  3  1  1  0
  5 15  1  0
  6  5  1  0
  6 11  1  0
  7  6  2  0
  8  9  2  0
  8  7  1  0
  9 10  1  0
 10 13  1  0
 10  5  2  0
 12  8  1  0
 14 18  1  0
 15 14  1  0
 15 16  2  0
 17 14  1  0
 18 19  1  0
 18 20  1  0
 18 21  1  0
 22 27  1  0
 22  2  1  0
 23 22  2  0
 24 25  2  0
 24 23  1  0
 25 26  1  0
 26 30  1  0
 26 27  2  0
 27 35  1  0
 28 24  1  0
 29 25  1  0
 31 23  1  0
 31 32  1  0
 33 31  1  0
 34 31  1  0
 35 36  1  0
 35 37  1  0
 35 38  1  0
M  END
>  <minimizedAffinity>  (327) 
-8.08661079

$$$$

     RDKit          3D

 41 44  0  0  0  0  0  0  0  0999 V2000
  -12.9490  -15.1050   34.8780 C   0  0  0  0  0  0  0  0  0  0  0  0
  -14.3300  -15.3920   35.3880 C   0  0  0  0  0  0  0  0  0  0  0  0
  -15.5160  -14.7210   34.7600 C   0  0  0  0  0  0  0  0  0  0  0  0
  -15.3200  -13.7630   33.6230 C   0  0  0  0  0  0  0  0  0  0  0  0
  -13.9390  -13.4750   33.1130 C   0  0  0  0  0  0  0  0  0  0  0  0
  -12.7540  -14.1460   33.7410 N   0  0  0  0  0  0  0  0  0  0  0  0
  -14.4640  -16.0520   36.1700 H   0  0  0  0  0  0  0  0  0  0  0  0
  -16.1360  -13.3010   33.1920 H   0  0  0  0  0  0  0  0  0  0  0  0
  -13.8050  -12.8160   32.3310 H   0  0  0  0  0  0  0  0  0  0  0  0
   -9.3910  -17.1180   36.7590 C   0  0  0  0  0  0  0  0  0  0  0  0
  -10.6870  -17.0290   37.5100 C   0  0  0  0  0  0  0  0  0  0  0  0
  -11.8730  -16.3580   36.8830 C   0  0  0  0  0  0  0  0  0  0  0  0
  -11.7630  -15.7760   35.5050 C   0  0  0  0  0  0  0  0  0  0  0  0
  -10.4670  -15.8640   34.7540 C   0  0  0  0  0  0  0  0  0  0  0  0
   -9.2810  -16.5350   35.3820 C   0  0  0  0  0  0  0  0  0  0  0  0
  -10.7620  -17.4300   38.4580 H   0  0  0  0  0  0  0  0  0  0  0  0
  -12.7640  -16.2980   37.3990 H   0  0  0  0  0  0  0  0  0  0  0  0
  -10.3910  -15.4630   33.8060 H   0  0  0  0  0  0  0  0  0  0  0  0
   -8.3900  -16.5960   34.8650 H   0  0  0  0  0  0  0  0  0  0  0  0
   -8.2050  -17.7890   37.3870 O   0  0  0  0  0  0  0  0  0  0  0  0
   -8.3830  -18.6340   38.6130 C   0  0  0  0  0  0  0  0  0  0  0  0
   -9.3570  -18.7590   39.0400 H   0  0  0  0  0  0  0  0  0  0  0  0
   -7.5370  -19.1130   39.0600 H   0  0  0  0  0  0  0  0  0  0  0  0
   -8.5110  -19.2370   39.4880 H   0  0  0  0  0  0  0  0  0  0  0  0
  -16.8970  -15.0090   35.2700 C   0  0  0  0  0  0  0  0  0  0  0  0
  -18.1810  -14.7150   34.5530 C   0  0  0  0  0  0  0  0  0  0  0  0
  -19.3140  -15.1650   35.4260 N   0  0  0  0  0  0  0  0  0  0  0  0
  -18.7300  -15.7380   36.6830 N   0  0  0  0  0  0  0  0  0  0  0  0
  -17.2360  -15.6410   36.5870 C   0  0  0  0  0  0  0  0  0  0  0  0
  -18.2690  -14.2790   33.6210 H   0  0  0  0  0  0  0  0  0  0  0  0
  -20.2720  -15.0970   35.2120 H   0  0  0  0  0  0  0  0  0  0  0  0
  -16.2550  -16.0970   37.6260 C   0  0  0  0  0  0  0  0  0  0  0  0
  -15.7790  -17.5190   37.6360 C   0  0  0  0  0  0  0  0  0  0  0  0
  -14.7980  -17.9760   38.6740 C   0  0  0  0  0  0  0  0  0  0  0  0
  -14.2910  -17.0090   39.7030 C   0  0  0  0  0  0  0  0  0  0  0  0
  -14.7660  -15.5860   39.6930 C   0  0  0  0  0  0  0  0  0  0  0  0
  -15.7480  -15.1300   38.6550 N   0  0  0  0  0  0  0  0  0  0  0  0
  -16.1280  -18.1850   36.9270 H   0  0  0  0  0  0  0  0  0  0  0  0
  -14.4710  -18.9550   38.6800 H   0  0  0  0  0  0  0  0  0  0  0  0
  -13.6160  -17.3220   40.4170 H   0  0  0  0  0  0  0  0  0  0  0  0
  -14.4180  -14.9210   40.4010 H   0  0  0  0  0  0  0  0  0  0  0  0
  1  2  1  0
  1 13  1  0
  2  7  1  0
  3 25  1  0
  3  2  2  0
  4  3  1  0
  5  4  2  0
  5  6  1  0
  6  1  2  0
  8  4  1  0
  9  5  1  0
 10 20  1  0
 10 11  1  0
 11 16  1  0
 12 17  1  0
 12 11  2  0
 13 12  1  0
 14 15  1  0
 14 13  2  0
 15 10  2  0
 18 14  1  0
 19 15  1  0
 20 21  1  0
 21 22  1  0
 21 23  1  0
 21 24  1  0
 25 29  1  0
 26 25  2  0
 26 27  1  0
 27 28  1  0
 29 28  2  0
 29 32  1  0
 30 26  1  0
 31 27  1  0
 32 33  2  0
 32 37  1  0
 33 34  1  0
 34 39  1  0
 34 35  2  0
 35 40  1  0
 36 35  1  0
 36 41  1  0
 37 36  2  0
 38 33  1  0
M  END
>  <minimizedAffinity>  (328) 
-8.78751469

$$$$

     RDKit          3D

 38 41  0  0  0  0  0  0  0  0999 V2000
  -18.1150  -14.3250   34.1880 O   0  0  0  0  0  0  0  0  0  0  0  0
  -16.9380  -14.8980   34.9210 C   0  0  0  0  0  0  0  0  0  0  0  0
  -16.9910  -15.9580   35.9810 N   0  0  0  0  0  0  0  0  0  0  0  0
  -15.5870  -16.2270   36.4370 C   0  0  0  0  0  0  0  0  0  0  0  0
  -15.0280  -17.1710   37.4600 C   0  0  0  0  0  0  0  0  0  0  0  0
  -13.5490  -17.2200   37.7060 C   0  0  0  0  0  0  0  0  0  0  0  0
  -12.6300  -16.3260   36.9280 C   0  0  0  0  0  0  0  0  0  0  0  0
  -13.1890  -15.3830   35.9050 C   0  0  0  0  0  0  0  0  0  0  0  0
  -14.6680  -15.3330   35.6590 C   0  0  0  0  0  0  0  0  0  0  0  0
  -15.5030  -14.5110   34.7220 C   0  0  0  0  0  0  0  0  0  0  0  0
  -14.9910  -13.4850   33.7560 C   0  0  0  0  0  0  0  0  0  0  0  0
  -17.8040  -16.4000   36.3180 H   0  0  0  0  0  0  0  0  0  0  0  0
  -15.6610  -17.7860   37.9950 H   0  0  0  0  0  0  0  0  0  0  0  0
  -13.1640  -17.8700   38.4100 H   0  0  0  0  0  0  0  0  0  0  0  0
  -12.5560  -14.7680   35.3700 H   0  0  0  0  0  0  0  0  0  0  0  0
  -13.9800  -13.2910   33.6950 H   0  0  0  0  0  0  0  0  0  0  0  0
  -11.1510  -16.3760   37.1730 C   0  0  0  0  0  0  0  0  0  0  0  0
  -10.6270  -16.5470   38.5690 C   0  0  0  0  0  0  0  0  0  0  0  0
   -9.1480  -16.5970   38.8140 C   0  0  0  0  0  0  0  0  0  0  0  0
   -8.1930  -16.4750   37.6640 C   0  0  0  0  0  0  0  0  0  0  0  0
   -8.7160  -16.3040   36.2690 N   0  0  0  0  0  0  0  0  0  0  0  0
  -10.1950  -16.2540   36.0240 C   0  0  0  0  0  0  0  0  0  0  0  0
  -11.2850  -16.6310   39.3600 H   0  0  0  0  0  0  0  0  0  0  0  0
   -8.7880  -16.7150   39.7740 H   0  0  0  0  0  0  0  0  0  0  0  0
   -7.1750  -16.5090   37.8330 H   0  0  0  0  0  0  0  0  0  0  0  0
  -10.5550  -16.1360   35.0640 H   0  0  0  0  0  0  0  0  0  0  0  0
  -15.9510  -12.7380   32.8780 C   0  0  0  0  0  0  0  0  0  0  0  0
  -16.6710  -11.5330   33.4070 C   0  0  0  0  0  0  0  0  0  0  0  0
  -17.6300  -10.7870   32.5290 C   0  0  0  0  0  0  0  0  0  0  0  0
  -18.3510   -9.5820   33.0580 Br  0  0  0  0  0  0  0  0  0  0  0  0
  -17.8710  -11.2440   31.1210 C   0  0  0  0  0  0  0  0  0  0  0  0
  -17.1510  -12.4500   30.5910 C   0  0  0  0  0  0  0  0  0  0  0  0
  -17.3900  -12.9080   29.1830 Br  0  0  0  0  0  0  0  0  0  0  0  0
  -16.1910  -13.1960   31.4700 C   0  0  0  0  0  0  0  0  0  0  0  0
  -16.5060  -11.2180   34.3770 H   0  0  0  0  0  0  0  0  0  0  0  0
  -15.6960  -14.0250   31.1060 H   0  0  0  0  0  0  0  0  0  0  0  0
  -18.8300  -10.4980   30.2430 O   0  0  0  0  0  0  0  0  0  0  0  0
  -19.2800   -9.7450   30.5730 H   0  0  0  0  0  0  0  0  0  0  0  0
  1  2  2  0
  2  3  1  0
  3 12  1  0
  3  4  1  0
  4  5  1  0
  5  6  2  0
  5 13  1  0
  6 14  1  0
  7 17  1  0
  7  6  1  0
  8  7  2  0
  9  8  1  0
  9  4  2  0
 10  2  1  0
 10  9  1  0
 11 10  2  0
 15  8  1  0
 16 11  1  0
 17 18  1  0
 18 19  2  0
 18 23  1  0
 19 24  1  0
 20 25  1  0
 20 19  1  0
 21 20  2  0
 22 21  1  0
 22 17  2  0
 26 22  1  0
 27 28  1  0
 27 11  1  0
 28 35  1  0
 29 30  1  0
 29 28  2  0
 31 29  1  0
 32 31  2  0
 32 34  1  0
 33 32  1  0
 34 27  2  0
 36 34  1  0
 37 38  1  0
 37 31  1  0
M  END
>  <minimizedAffinity>  (329) 
-8.31245327

$$$$

     RDKit          3D

 71 65  0  0  0  0  0  0  0  0999 V2000
  -14.9080  -12.9290   32.2030 C   0  0  0  0  0  0  0  0  0  0  0  0
  -15.2620  -12.8200   30.7500 C   0  0  0  0  0  0  0  0  0  0  0  0
  -16.4630  -11.9270   30.6330 C   0  0  0  0  0  0  0  0  0  0  0  0
  -17.2540  -11.4600   29.4470 N   0  0  0  0  0  0  0  0  0  0  0  0
  -18.4310  -10.5510   29.6410 C   0  0  0  0  0  0  0  0  0  0  0  0
  -18.8180  -10.1100   31.0220 N   0  0  0  0  0  0  0  0  0  0  0  0
  -18.0270  -10.5770   32.2080 C   0  0  0  0  0  0  0  0  0  0  0  0
  -16.8500  -11.4860   32.0130 C   0  0  0  0  0  0  0  0  0  0  0  0
  -15.8880  -12.1050   32.9850 S   0  0  0  0  0  0  0  0  0  0  0  0
  -14.7680  -13.2770   29.9690 H   0  0  0  0  0  0  0  0  0  0  0  0
  -18.9760  -10.2300   28.8250 H   0  0  0  0  0  0  0  0  0  0  0  0
  -12.6350  -14.5180   33.3480 C   0  0  0  0  0 15  0  0  0  0  0  0
  -13.7720  -13.7230   32.7760 C   0  0  0  0  0  1  0  0  0  0  0  0
  -10.0760  -16.5150   35.4770 C   0  0  0  0  0  2  0  0  0  0  0  0
   -9.4230  -16.5550   34.1260 C   0  0  0  0  0  2  0  0  0  0  0  0
  -10.3030  -15.8110   33.1640 N   0  0  0  0  0  1  0  0  0  0  0  0
  -11.4990  -15.3120   33.9210 C   0  0  0  0  0  2  0  0  0  0  0  0
  -11.3580  -15.7470   35.3500 C   0  0  0  0  0  3  0  0  0  0  0  0
   -9.1420  -17.0320   35.4030 H   0  0  0  0  0  0  0  0  0  0  0  0
   -8.4950  -17.0300   33.8900 H   0  0  0  0  0  0  0  0  0  0  0  0
   -9.0910  -16.4940   33.1110 H   0  0  0  0  0  0  0  0  0  0  0  0
  -10.1200  -15.6700   32.1710 H   0  0  0  0  0  0  0  0  0  0  0  0
  -11.4520  -15.0800   32.8780 H   0  0  0  0  0  0  0  0  0  0  0  0
  -12.0510  -15.5440   36.1390 H   0  0  0  0  0  0  0  0  0  0  0  0
  -11.1140  -16.1270   36.3190 H   0  0  0  0  0  0  0  0  0  0  0  0
   -9.5400  -17.1340   36.7330 O   0  0  0  0  0  0  0  0  0  0  0  0
   -8.5780  -15.6140   38.6080 O   0  0  0  0  0  1  0  0  0  0  0  0
   -9.7060  -16.4280   38.0460 C   0  0  0  0  0  2  0  0  0  0  0  0
  -11.0000  -16.5350   38.7970 N   0  0  0  0  0 15  0  0  0  0  0  0
  -11.1660  -15.8290   40.1100 C   0  0  0  0  0  2  0  0  0  0  0  0
  -12.4610  -15.9360   40.8610 C   0  0  0  0  0  2  0  0  0  0  0  0
  -13.5890  -16.7500   40.2990 O   0  0  0  0  0  1  0  0  0  0  0  0
  -13.4230  -17.4560   38.9860 C   0  0  0  0  0  3  0  0  0  0  0  0
  -12.1280  -17.3480   38.2350 C   0  0  0  0  0  2  0  0  0  0  0  0
  -10.3620  -15.2480   40.5110 H   0  0  0  0  0  0  0  0  0  0  0  0
  -11.2850  -15.3250   41.0470 H   0  0  0  0  0  0  0  0  0  0  0  0
  -12.5790  -15.4330   41.7970 H   0  0  0  0  0  0  0  0  0  0  0  0
  -13.3840  -16.0130   41.3960 H   0  0  0  0  0  0  0  0  0  0  0  0
  -14.2270  -18.0360   38.5850 H   0  0  0  0  0  0  0  0  0  0  0  0
  -13.3040  -17.9590   38.0490 H   0  0  0  0  0  0  0  0  0  0  0  0
  -12.0100  -17.8520   37.2990 H   0  0  0  0  0  0  0  0  0  0  0  0
  -11.2050  -17.2720   37.6990 H   0  0  0  0  0  0  0  0  0  0  0  0
  -18.4140  -10.1360   33.5880 N   0  0  0  0  0  0  0  0  0  0  0  0
  -18.4680   -9.1760   33.8010 H   0  0  0  0  0  0  0  0  0  0  0  0
  -18.7180  -11.1560   34.6440 C   0  0  0  0  0  0  0  0  0  0  0  0
  -18.7690  -10.7500   36.0870 C   0  0  0  0  0  0  0  0  0  0  0  0
  -19.0730  -11.7710   37.1440 C   0  0  0  0  0  0  0  0  0  0  0  0
  -19.3260  -13.1980   36.7570 C   0  0  0  0  0  0  0  0  0  0  0  0
  -19.2750  -13.6040   35.3140 C   0  0  0  0  0  0  0  0  0  0  0  0
  -19.5650  -15.0740   35.2360 C   0  0  0  0  0  0  0  0  0  0  0  0
  -19.7950  -15.5760   36.6310 N   0  0  0  0  0  0  0  0  0  0  0  0
  -19.6470  -14.4170   37.5710 N   0  0  0  0  0  0  0  0  0  0  0  0
  -18.9710  -12.5830   34.2580 C   0  0  0  0  0  0  0  0  0  0  0  0
  -18.5950   -9.7680   36.3530 H   0  0  0  0  0  0  0  0  0  0  0  0
  -19.1080  -11.4910   38.1370 H   0  0  0  0  0  0  0  0  0  0  0  0
  -19.6000  -15.6400   34.3730 H   0  0  0  0  0  0  0  0  0  0  0  0
  -18.9360  -12.8630   33.2650 H   0  0  0  0  0  0  0  0  0  0  0  0
  -19.7950  -14.4670   39.0620 C   0  0  0  0  0  0  0  0  0  0  0  0
  -20.4540  -13.7850   39.5580 H   0  0  0  0  0  0  0  0  0  0  0  0
  -19.9010  -14.5020   40.1270 H   0  0  0  0  0  0  0  0  0  0  0  0
  -19.0190  -15.4730   39.8600 C   0  0  0  0  0  0  0  0  0  0  0  0
  -19.6860  -16.7280   40.3380 C   0  0  0  0  0  0  0  0  0  0  0  0
  -18.9110  -17.7340   41.1350 C   0  0  0  0  0  0  0  0  0  0  0  0
  -17.4660  -17.4840   41.4550 C   0  0  0  0  0  0  0  0  0  0  0  0
  -16.7980  -16.2280   40.9770 C   0  0  0  0  0  0  0  0  0  0  0  0
  -17.5750  -15.2230   40.1790 C   0  0  0  0  0  0  0  0  0  0  0  0
  -20.6800  -16.9000   40.1180 H   0  0  0  0  0  0  0  0  0  0  0  0
  -19.3690  -18.5970   41.4640 H   0  0  0  0  0  0  0  0  0  0  0  0
  -16.9320  -18.1760   42.0040 H   0  0  0  0  0  0  0  0  0  0  0  0
  -15.8050  -16.0570   41.1970 H   0  0  0  0  0  0  0  0  0  0  0  0
  -17.1150  -14.3590   39.8510 H   0  0  0  0  0  0  0  0  0  0  0  0
  1 13  1  0
  1  9  1  0
  2  1  2  0
  3  2  1  0
  3  8  2  0
  4  5  2  0
  4  3  1  0
  5  6  1  0
  6  7  2  0
  7 43  1  0
  8  7  1  0
  8  9  1  0
 10  2  1  0
 11  5  1  0
 14 26  1  0
 17 18  1  0
 18 24  1  0
 18 25  1  0
 19 14  1  0
 20 15  1  0
 21 15  1  0
 22 16  1  0
 23 17  1  0
 26 28  1  0
 28 27  1  0
 30 35  1  0
 30 36  1  0
 31 38  1  0
 31 37  1  0
 33 32  1  0
 39 33  1  0
 40 33  1  0
 41 34  1  0
 42 34  1  0
 43 44  1  0
 43 45  1  0
 45 46  1  0
 46 54  1  0
 46 47  2  0
 47 55  1  0
 48 47  1  0
 48 52  1  0
 49 48  2  0
 50 49  1  0
 50 51  2  0
 51 52  1  0
 52 58  1  0
 53 45  2  0
 53 49  1  0
 56 50  1  0
 57 53  1  0
 58 59  1  0
 58 61  1  0
 58 60  1  0
 61 66  2  0
 61 62  1  0
 62 63  2  0
 63 64  1  0
 63 68  1  0
 64 69  1  0
 65 70  1  0
 65 64  2  0
 66 65  1  0
 67 62  1  0
 71 66  1  0
M  END
>  <minimizedAffinity>  (330) 
-11.5394115

$$$$

     RDKit          3D

 59 57  0  0  0  0  0  0  0  0999 V2000
  -11.2170  -16.3370   36.4850 C   0  0  0  0  0  0  0  0  0  0  0  0
  -11.7180  -15.7520   35.1970 C   0  0  0  0  0  0  0  0  0  0  0  0
  -10.5800  -15.7420   34.2190 N   0  0  0  0  0  0  0  0  0  0  0  0
   -9.3760  -16.3210   34.9030 C   0  0  0  0  0  0  0  0  0  0  0  0
   -9.7700  -16.6880   36.3020 N   0  0  0  0  0  0  0  0  0  0  0  0
   -8.4420  -16.4440   34.4830 H   0  0  0  0  0  0  0  0  0  0  0  0
   -8.8750  -17.3000   37.3390 C   0  0  0  0  0  2  0  0  0  0  0  0
   -7.9740  -16.4280   38.1620 C   0  0  0  0  0  2  0  0  0  0  0  0
   -7.0790  -17.0410   39.1980 C   0  0  0  0  0  2  0  0  0  0  0  0
   -7.0850  -18.5250   39.4110 N   0  0  0  0  0  1  0  0  0  0  0  0
   -7.9870  -19.3970   38.5890 C   0  0  0  0  0  2  0  0  0  0  0  0
   -8.8820  -18.7850   37.5530 C   0  0  0  0  0  2  0  0  0  0  0  0
   -8.2370  -17.7370   38.0780 H   0  0  0  0  0  0  0  0  0  0  0  0
   -7.9690  -15.3690   38.0090 H   0  0  0  0  0  0  0  0  0  0  0  0
   -7.3310  -15.8060   38.7480 H   0  0  0  0  0  0  0  0  0  0  0  0
   -6.4360  -16.4180   39.7850 H   0  0  0  0  0  0  0  0  0  0  0  0
   -6.4410  -17.4780   39.9370 H   0  0  0  0  0  0  0  0  0  0  0  0
   -6.4770  -18.9410   40.1160 H   0  0  0  0  0  0  0  0  0  0  0  0
   -7.9910  -20.4570   38.7410 H   0  0  0  0  0  0  0  0  0  0  0  0
   -8.6300  -20.0200   38.0020 H   0  0  0  0  0  0  0  0  0  0  0  0
   -9.5250  -19.4070   36.9660 H   0  0  0  0  0  0  0  0  0  0  0  0
   -9.5200  -18.3490   36.8140 H   0  0  0  0  0  0  0  0  0  0  0  0
  -13.1110  -15.2630   34.9340 C   0  0  0  0  0  0  0  0  0  0  0  0
  -14.2830  -15.9650   35.5550 C   0  0  0  0  0  0  0  0  0  0  0  0
  -15.6760  -15.4760   35.2910 C   0  0  0  0  0  0  0  0  0  0  0  0
  -15.8980  -14.2850   34.4060 C   0  0  0  0  0  0  0  0  0  0  0  0
  -17.2910  -13.7960   34.1420 F   0  0  0  0  0  0  0  0  0  0  0  0
  -14.7260  -13.5830   33.7850 C   0  0  0  0  0  0  0  0  0  0  0  0
  -13.3330  -14.0730   34.0490 C   0  0  0  0  0  0  0  0  0  0  0  0
  -14.1300  -16.7850   36.1640 H   0  0  0  0  0  0  0  0  0  0  0  0
  -16.4820  -15.9580   35.7180 H   0  0  0  0  0  0  0  0  0  0  0  0
  -14.8790  -12.7640   33.1760 H   0  0  0  0  0  0  0  0  0  0  0  0
  -12.5270  -13.5900   33.6220 H   0  0  0  0  0  0  0  0  0  0  0  0
  -14.1000  -17.5270   38.9390 C   0  0  0  0  0  0  0  0  0  0  0  0
  -13.6330  -16.9320   40.2340 N   0  0  0  0  0  0  0  0  0  0  0  0
  -12.3600  -16.1390   40.2800 C   0  0  0  0  0  3  0  0  0  0  0  0
  -11.5550  -15.9410   39.0300 C   0  0  0  0  0  0  0  0  0  0  0  0
  -12.0230  -16.5350   37.7340 C   0  0  0  0  0  0  0  0  0  0  0  0
  -13.2950  -17.3290   37.6890 N   0  0  0  0  0  0  0  0  0  0  0  0
  -12.0390  -15.7300   41.1710 H   0  0  0  0  0  0  0  0  0  0  0  0
  -10.6800  -15.3950   39.0610 H   0  0  0  0  0  0  0  0  0  0  0  0
  -15.3720  -18.3200   38.8940 O   0  0  0  0  0  0  0  0  0  0  0  0
  -18.7320  -17.2310   40.7030 C   0  0  0  0  0  0  0  0  0  0  0  0
  -19.3140  -16.2970   39.6820 C   0  0  0  0  0  0  0  0  0  0  0  0
  -18.5810  -16.0380   38.3990 C   0  0  0  0  0  0  0  0  0  0  0  0
  -17.2680  -16.7130   38.1360 C   0  0  0  0  0  0  0  0  0  0  0  0
  -16.6860  -17.6460   39.1570 C   0  0  0  0  0  0  0  0  0  0  0  0
  -17.4190  -17.9050   40.4400 C   0  0  0  0  0  0  0  0  0  0  0  0
  -20.2180  -15.8330   39.8630 H   0  0  0  0  0  0  0  0  0  0  0  0
  -18.9820  -15.3960   37.6970 H   0  0  0  0  0  0  0  0  0  0  0  0
  -16.7640  -16.5340   37.2540 H   0  0  0  0  0  0  0  0  0  0  0  0
  -19.4650  -17.4900   41.9860 C   0  0  0  0  0  0  0  0  0  0  0  0
  -20.4020  -17.0090   42.1730 H   0  0  0  0  0  0  0  0  0  0  0  0
  -19.0500  -18.1560   42.7130 H   0  0  0  0  0  0  0  0  0  0  0  0
  -19.9870  -17.6750   42.9010 H   0  0  0  0  0  0  0  0  0  0  0  0
  -16.8370  -18.8390   41.4600 C   0  0  0  0  0  0  0  0  0  0  0  0
  -17.3600  -19.0230   42.3750 H   0  0  0  0  0  0  0  0  0  0  0  0
  -15.9000  -19.3200   41.2720 H   0  0  0  0  0  0  0  0  0  0  0  0
  -16.4220  -19.5050   42.1880 H   0  0  0  0  0  0  0  0  0  0  0  0
  1 38  1  0
  2  1  2  0
  3  4  2  0
  3  2  1  0
  4  5  1  0
  5  1  1  0
  5  7  1  0
  6  4  1  0
  7 13  1  0
  8 15  1  0
  9 16  1  0
  9 17  1  0
 10 18  1  0
 11 19  1  0
 14  8  1  0
 20 11  1  0
 21 12  1  0
 22 12  1  0
 23  2  1  0
 23 24  1  0
 24 30  1  0
 25 24  2  0
 25 31  1  0
 26 25  1  0
 27 26  1  0
 28 29  1  0
 28 26  2  0
 29 23  2  0
 32 28  1  0
 33 29  1  0
 34 35  2  0
 35 36  1  0
 36 40  1  0
 37 41  1  0
 37 36  1  0
 38 37  2  0
 39 38  1  0
 39 34  2  0
 42 34  1  0
 42 47  1  0
 43 52  1  0
 44 49  1  0
 44 43  2  0
 45 44  1  0
 46 45  2  0
 46 47  1  0
 47 48  2  0
 48 43  1  0
 48 56  1  0
 50 45  1  0
 51 46  1  0
 52 53  1  0
 52 54  1  0
 52 55  1  0
 56 59  1  0
 56 57  1  0
 58 56  1  0
M  END
>  <minimizedAffinity>  (331) 
-9.78572369

$$$$

     RDKit          3D

 50 54  0  0  0  0  0  0  0  0999 V2000
   -8.4360  -17.3370   38.2930 C   0  0  0  0  0  0  0  0  0  0  0  0
   -8.3940  -16.6360   36.9680 C   0  0  0  0  0  0  0  0  0  0  0  0
   -9.6610  -16.1280   36.3470 C   0  0  0  0  0  0  0  0  0  0  0  0
  -10.9710  -16.3200   37.0520 C   0  0  0  0  0  0  0  0  0  0  0  0
  -12.3730  -15.9300   36.6900 C   0  0  0  0  0  0  0  0  0  0  0  0
  -13.2820  -16.3900   37.7910 C   0  0  0  0  0  0  0  0  0  0  0  0
  -12.4420  -17.0640   38.8340 N   0  0  0  0  0  0  0  0  0  0  0  0
  -11.0140  -17.0210   38.3780 N   0  0  0  0  0  0  0  0  0  0  0  0
   -9.7460  -17.5300   38.9980 N   0  0  0  0  0  0  0  0  0  0  0  0
   -7.4920  -16.5040   36.4830 H   0  0  0  0  0  0  0  0  0  0  0  0
   -9.6320  -15.6450   35.4350 H   0  0  0  0  0  0  0  0  0  0  0  0
  -14.7700  -16.2070   37.8390 C   0  0  0  0  0  0  0  0  0  0  0  0
  -15.6610  -17.0830   37.0090 C   0  0  0  0  0  0  0  0  0  0  0  0
  -17.1490  -16.9000   37.0580 C   0  0  0  0  0  0  0  0  0  0  0  0
  -17.7460  -15.8420   37.9370 C   0  0  0  0  0  0  0  0  0  0  0  0
  -16.8560  -14.9660   38.7670 C   0  0  0  0  0  0  0  0  0  0  0  0
  -15.3680  -15.1480   38.7180 C   0  0  0  0  0  0  0  0  0  0  0  0
  -15.2500  -17.8120   36.4050 H   0  0  0  0  0  0  0  0  0  0  0  0
  -17.7620  -17.5030   36.4870 H   0  0  0  0  0  0  0  0  0  0  0  0
  -18.7700  -15.7160   37.9710 H   0  0  0  0  0  0  0  0  0  0  0  0
  -17.2670  -14.2370   39.3720 H   0  0  0  0  0  0  0  0  0  0  0  0
  -14.7550  -14.5460   39.2890 H   0  0  0  0  0  0  0  0  0  0  0  0
  -12.7930  -15.2060   35.4440 C   0  0  0  0  0  0  0  0  0  0  0  0
  -11.8470  -15.1010   34.2840 C   0  0  0  0  0  0  0  0  0  0  0  0
  -12.2670  -14.3780   33.0380 C   0  0  0  0  0  0  0  0  0  0  0  0
  -13.6310  -13.7610   32.9530 N   0  0  0  0  0  0  0  0  0  0  0  0
  -14.5760  -13.8660   34.1130 C   0  0  0  0  0  0  0  0  0  0  0  0
  -15.9400  -13.2490   34.0270 N   0  0  0  0  0  0  0  0  0  0  0  0
  -14.1570  -14.5890   35.3580 N   0  0  0  0  0  0  0  0  0  0  0  0
  -10.9090  -15.5260   34.3420 H   0  0  0  0  0  0  0  0  0  0  0  0
  -11.6160  -14.3050   32.2400 H   0  0  0  0  0  0  0  0  0  0  0  0
  -16.5600  -13.3180   34.7880 H   0  0  0  0  0  0  0  0  0  0  0  0
  -16.3600  -12.5250   32.7810 C   0  0  0  0  0  0  0  0  0  0  0  0
  -15.9210  -11.1100   32.5530 C   0  0  0  0  0  0  0  0  0  0  0  0
  -16.3400  -10.3860   31.3070 C   0  0  0  0  0  0  0  0  0  0  0  0
  -17.1980  -11.0790   30.2910 C   0  0  0  0  0  0  0  0  0  0  0  0
  -17.6380  -12.4960   30.5200 C   0  0  0  0  0  0  0  0  0  0  0  0
  -17.2180  -13.2180   31.7650 C   0  0  0  0  0  0  0  0  0  0  0  0
  -15.3300  -10.6330   33.2520 H   0  0  0  0  0  0  0  0  0  0  0  0
  -16.0380   -9.4130   31.1500 H   0  0  0  0  0  0  0  0  0  0  0  0
  -17.4870  -10.5820   29.4340 H   0  0  0  0  0  0  0  0  0  0  0  0
  -17.5200  -14.1930   31.9230 H   0  0  0  0  0  0  0  0  0  0  0  0
  -18.4960  -13.1880   29.5030 C   0  0  0  0  0  0  0  0  0  0  0  0
  -19.3540  -13.8790   28.4850 F   0  0  0  0  0  0  0  0  0  0  0  0
  -19.2020  -13.9270   30.6010 F   0  0  0  0  0  0  0  0  0  0  0  0
  -17.7890  -12.4480   28.4050 F   0  0  0  0  0  0  0  0  0  0  0  0
   -7.1690  -17.8460   38.9140 C   0  0  0  0  0  0  0  0  0  0  0  0
   -6.2340  -17.7090   38.4110 H   0  0  0  0  0  0  0  0  0  0  0  0
   -7.1990  -18.3460   39.8600 H   0  0  0  0  0  0  0  0  0  0  0  0
   -6.2650  -18.2090   39.3560 H   0  0  0  0  0  0  0  0  0  0  0  0
  1 47  1  0
  1  9  2  0
  2  1  1  0
  3  2  2  0
  3  4  1  0
  4  8  1  0
  5  4  2  0
  5  6  1  0
  6 12  1  0
  6  7  2  0
  8  7  1  0
  8  9  1  0
 10  2  1  0
 11  3  1  0
 12 17  1  0
 13 14  1  0
 13 12  2  0
 14 15  2  0
 15 20  1  0
 15 16  1  0
 16 21  1  0
 17 16  2  0
 17 22  1  0
 18 13  1  0
 19 14  1  0
 23  5  1  0
 24 30  1  0
 24 23  1  0
 25 24  2  0
 26 25  1  0
 26 27  2  0
 27 29  1  0
 28 27  1  0
 28 32  1  0
 29 23  2  0
 31 25  1  0
 33 28  1  0
 34 33  1  0
 34 39  1  0
 35 34  2  0
 36 37  2  0
 36 35  1  0
 37 38  1  0
 38 42  1  0
 38 33  2  0
 40 35  1  0
 41 36  1  0
 43 37  1  0
 43 45  1  0
 44 43  1  0
 46 43  1  0
 47 50  1  0
 47 49  1  0
 48 47  1  0
M  END
>  <minimizedAffinity>  (332) 
-9.35050869

$$$$

     RDKit          3D

 46 41  0  0  1  0  0  0  0  0999 V2000
  -12.6610  -15.8130   36.0400 C   0  0  0  0  0  0  0  0  0  0  0  0
  -13.2260  -15.2010   34.7920 C   0  0  0  0  0  3  0  0  0  0  0  0
  -12.1120  -15.0630   33.7970 N   0  0  0  0  0  0  0  0  0  0  0  0
  -10.8580  -15.5890   34.4300 C   0  0  0  0  0  0  0  0  0  0  0  0
  -11.1980  -16.0520   35.8160 N   0  0  0  0  0  0  0  0  0  0  0  0
   -9.9260  -15.6260   33.9900 H   0  0  0  0  0  0  0  0  0  0  0  0
  -10.2410  -16.6500   36.8050 C   0  0  0  0  0  1  0  0  0  0  0  0
   -9.5480  -17.9420   36.4910 C   0  0  0  0  0  2  0  0  0  0  0  0
   -8.5920  -18.5410   37.4790 C   0  0  0  0  0  2  0  0  0  0  0  0
   -8.3270  -17.8460   38.7820 C   0  0  0  0  0  1  0  0  0  0  0  0
   -9.0200  -16.5530   39.0970 C   0  0  0  0  0  2  0  0  0  0  0  0
   -9.9770  -15.9550   38.1080 C   0  0  0  0  0  2  0  0  0  0  0  0
  -10.4290  -17.1460   35.8760 H   0  0  0  0  0  0  0  0  0  0  0  0
   -9.7370  -18.4380   35.5610 H   0  0  0  0  0  0  0  0  0  0  0  0
   -9.0540  -18.8650   36.2660 H   0  0  0  0  0  0  0  0  0  0  0  0
   -8.0970  -19.4630   37.2550 H   0  0  0  0  0  0  0  0  0  0  0  0
   -7.9090  -18.9670   38.1850 H   0  0  0  0  0  0  0  0  0  0  0  0
   -7.8330  -18.7680   38.5580 H   0  0  0  0  0  0  0  0  0  0  0  0
   -8.8320  -16.0580   40.0260 H   0  0  0  0  0  0  0  0  0  0  0  0
   -9.5150  -15.6310   39.3210 H   0  0  0  0  0  0  0  0  0  0  0  0
  -10.4710  -15.0330   38.3330 H   0  0  0  0  0  0  0  0  0  0  0  0
  -10.6600  -15.5290   37.4030 H   0  0  0  0  0  0  0  0  0  0  0  0
   -7.3710  -18.4440   39.7710 O   0  0  0  0  0  1  0  0  0  0  0  0
   -6.9230  -19.2800   39.5670 H   0  0  0  0  0  0  0  0  0  0  0  0
  -14.7470  -19.2990   39.2790 N   0  0  0  0  0  0  0  0  0  0  0  0
  -14.4680  -17.8720   38.9110 C   0  0  0  0  0  0  0  0  0  0  0  0
  -14.9540  -16.7610   39.7940 N   0  0  0  0  0  0  0  0  0  0  0  0
  -14.6750  -15.3340   39.4260 C   0  0  0  0  0  0  0  0  0  0  0  0
  -13.9110  -15.0180   38.1740 C   0  0  0  0  0  0  0  0  0  0  0  0
  -13.4250  -16.1290   37.2910 C   0  0  0  0  0  0  0  0  0  0  0  0
  -13.7040  -17.5560   37.6590 N   0  0  0  0  0  0  0  0  0  0  0  0
  -15.2490  -19.5070   40.1010 H   0  0  0  0  0  0  0  0  0  0  0  0
  -14.4280  -20.0290   38.6990 H   0  0  0  0  0  0  0  0  0  0  0  0
  -15.0090  -14.5700   40.0330 H   0  0  0  0  0  0  0  0  0  0  0  0
  -13.7190  -14.0360   37.9210 H   0  0  0  0  0  0  0  0  0  0  0  0
  -14.6550  -14.7990   34.5770 C   0  0  0  0  0  0  0  0  0  0  0  0
  -14.9850  -13.6740   33.6400 C   0  0  0  0  0  0  0  0  0  0  0  0
  -16.4140  -13.2720   33.4250 C   0  0  0  0  0  0  0  0  0  0  0  0
  -17.5130  -13.9930   34.1460 C   0  0  0  0  0  0  0  0  0  0  0  0
  -18.9420  -13.5900   33.9310 F   0  0  0  0  0  0  0  0  0  0  0  0
  -17.1830  -15.1170   35.0830 C   0  0  0  0  0  0  0  0  0  0  0  0
  -15.7540  -15.5200   35.2990 C   0  0  0  0  0  0  0  0  0  0  0  0
  -14.2290  -13.1780   33.1430 H   0  0  0  0  0  0  0  0  0  0  0  0
  -16.6400  -12.4980   32.7800 H   0  0  0  0  0  0  0  0  0  0  0  0
  -17.9400  -15.6140   35.5800 H   0  0  0  0  0  0  0  0  0  0  0  0
  -15.5280  -16.2930   35.9430 H   0  0  0  0  0  0  0  0  0  0  0  0
  1 30  1  0
  2 36  1  0
  2  1  1  0
  3  4  2  0
  3  2  1  0
  4  5  1  0
  5  1  2  0
  6  4  1  0
  9 17  1  0
 11 20  1  0
 11 19  1  0
 12 21  1  0
 13  7  1  0
 14  8  1  0
 15  8  1  0
 16  9  1  0
 18 10  1  0
 22 12  1  0
 24 23  1  0
 25 32  1  0
 26 25  1  0
 26 27  2  0
 28 27  1  0
 28 34  1  0
 29 28  2  0
 30 31  2  0
 30 29  1  0
 31 26  1  0
 33 25  1  0
 35 29  1  0
 36 42  1  0
 37 36  2  0
 38 37  1  0
 38 39  2  0
 39 41  1  0
 40 39  1  0
 41 42  2  0
 41 45  1  0
 42 46  1  0
 43 37  1  0
 44 38  1  0
M  END
>  <minimizedAffinity>  (333) 
-9.46865654

$$$$

     RDKit          3D

 47 42  0  0  0  0  0  0  0  0999 V2000
  -15.1280  -13.3010   32.5550 C   0  0  0  0  0  0  0  0  0  0  0  0
  -16.0930  -13.8120   33.5850 C   0  0  0  0  0  0  0  0  0  0  0  0
  -15.5910  -14.6070   34.7530 C   0  0  0  0  0  0  0  0  0  0  0  0
  -14.1250  -14.8930   34.8920 C   0  0  0  0  0  0  0  0  0  0  0  0
  -13.1610  -14.3830   33.8630 C   0  0  0  0  0  0  0  0  0  0  0  0
  -13.6620  -13.5870   32.6940 C   0  0  0  0  0  0  0  0  0  0  0  0
  -17.1010  -13.6150   33.4890 H   0  0  0  0  0  0  0  0  0  0  0  0
  -16.2550  -14.9580   35.4620 H   0  0  0  0  0  0  0  0  0  0  0  0
  -12.1520  -14.5790   33.9580 H   0  0  0  0  0  0  0  0  0  0  0  0
  -12.9990  -13.2360   31.9860 H   0  0  0  0  0  0  0  0  0  0  0  0
  -13.6230  -15.6890   36.0610 C   0  0  0  0  0  0  0  0  0  0  0  0
  -14.5910  -16.2240   37.0740 C   0  0  0  0  0  0  0  0  0  0  0  0
  -14.0890  -17.0200   38.2430 C   0  0  0  0  0  0  0  0  0  0  0  0
  -12.6200  -17.2800   38.3970 C   0  0  0  0  0  0  0  0  0  0  0  0
  -11.6530  -16.7450   37.3840 C   0  0  0  0  0  0  0  0  0  0  0  0
  -12.1540  -15.9490   36.2150 C   0  0  0  0  0  0  0  0  0  0  0  0
  -15.6020  -16.0450   36.9680 H   0  0  0  0  0  0  0  0  0  0  0  0
  -14.7550  -17.3880   38.9400 H   0  0  0  0  0  0  0  0  0  0  0  0
  -12.2750  -17.8270   39.2010 H   0  0  0  0  0  0  0  0  0  0  0  0
  -11.4890  -15.5800   35.5180 H   0  0  0  0  0  0  0  0  0  0  0  0
  -10.1840  -17.0050   37.5380 C   0  0  0  0  0  0  0  0  0  0  0  0
   -9.2000  -16.3040   36.6490 O   0  0  0  0  0  0  0  0  0  0  0  0
   -9.6980  -17.9660   38.5830 N   0  0  0  0  0  2  0  0  0  0  0  0
  -10.3430  -18.4260   39.1670 H   0  0  0  0  0  0  0  0  0  0  0  0
   -8.2290  -18.2260   38.7380 C   0  0  0  0  0 15  0  0  0  0  0  0
   -7.0200  -19.0630   38.4420 C   0  0  0  0  0  3  0  0  0  0  0  0
   -6.8940  -17.8400   39.3020 C   0  0  0  0  0  2  0  0  0  0  0  0
   -7.1810  -18.4120   38.8480 H   0  0  0  0  0  0  0  0  0  0  0  0
   -6.5740  -19.9100   37.9660 H   0  0  0  0  0  0  0  0  0  0  0  0
   -5.9840  -19.0170   38.7070 H   0  0  0  0  0  0  0  0  0  0  0  0
   -6.2920  -17.1780   39.8880 H   0  0  0  0  0  0  0  0  0  0  0  0
   -7.5710  -17.0920   39.6570 H   0  0  0  0  0  0  0  0  0  0  0  0
  -14.9430  -11.2310   30.9980 O   0  0  0  0  0  0  0  0  0  0  0  0
  -15.6300  -12.5060   31.3870 C   0  0  0  0  0  0  0  0  0  0  0  0
  -16.8190  -12.9850   30.6080 N   0  0  0  0  0  4  0  0  0  0  0  0
  -17.2700  -13.8220   30.8640 H   0  0  0  0  0  0  0  0  0  0  0  0
  -17.3210  -12.1900   29.4400 C   0  0  0  0  0  0  0  0  0  0  0  0
  -16.8960  -11.2320   29.2230 H   0  0  0  0  0  0  0  0  0  0  0  0
  -17.6790  -11.6220   28.6060 H   0  0  0  0  0  0  0  0  0  0  0  0
  -18.4180  -12.7370   28.5760 C   0  0  0  0  0 15  0  0  0  0  0  0
  -19.7860  -12.6050   27.9750 C   0  0  0  0  0  2  0  0  0  0  0  0
  -18.9510  -13.8150   27.6800 C   0  0  0  0  0  3  0  0  0  0  0  0
  -19.2010  -13.1270   27.9590 H   0  0  0  0  0  0  0  0  0  0  0  0
  -20.6940  -12.0520   27.8490 H   0  0  0  0  0  0  0  0  0  0  0  0
  -20.3880  -13.2060   27.3250 H   0  0  0  0  0  0  0  0  0  0  0  0
  -18.8260  -14.7580   27.1890 H   0  0  0  0  0  0  0  0  0  0  0  0
  -17.9760  -14.1500   27.9670 H   0  0  0  0  0  0  0  0  0  0  0  0
  1  6  2  0
  1  2  1  0
  2  3  2  0
  3  4  1  0
  3  8  1  0
  4 11  1  0
  5  9  1  0
  5  4  2  0
  6  5  1  0
  7  2  1  0
 10  6  1  0
 11 16  2  0
 11 12  1  0
 12 13  2  0
 13 14  1  0
 13 18  1  0
 14 19  1  0
 15 21  1  0
 15 14  2  0
 16 15  1  0
 17 12  1  0
 20 16  1  0
 21 23  1  0
 22 21  2  0
 23 24  1  0
 26 30  1  0
 26 28  1  0
 27 32  1  0
 27 31  1  0
 29 26  1  0
 33 34  2  0
 34  1  1  0
 35 36  1  0
 35 34  1  0
 37 35  2  0
 38 37  1  0
 39 37  1  0
 42 43  1  0
 42 47  1  0
 44 41  1  0
 45 41  1  0
 46 42  1  0
M  END
>  <minimizedAffinity>  (334) 
-9.62559509

$$$$

     RDKit          3D

 53 56  0  0  0  0  0  0  0  0999 V2000
  -15.5110  -16.1320   39.4970 C   0  0  0  0  0  0  0  0  0  0  0  0
  -16.7350  -15.5410   38.8640 S   0  0  0  0  0  0  0  0  0  0  0  0
  -16.6640  -15.7990   37.3870 C   0  0  0  0  0  0  0  0  0  0  0  0
  -15.3950  -16.5490   37.1100 C   0  0  0  0  0  0  0  0  0  0  0  0
  -14.6830  -16.7550   38.4140 C   0  0  0  0  0  0  0  0  0  0  0  0
  -15.0700  -16.8680   36.1840 H   0  0  0  0  0  0  0  0  0  0  0  0
  -17.6820  -15.3800   36.3690 N   0  0  0  0  0  0  0  0  0  0  0  0
  -19.1630  -15.6040   36.4590 C   0  0  0  0  0  0  0  0  0  0  0  0
  -19.7950  -15.0260   35.2270 N   0  0  0  0  0  0  0  0  0  0  0  0
  -18.7050  -14.4440   34.3770 C   0  0  0  0  0  0  0  0  0  0  0  0
  -18.7330  -13.7440   33.0510 C   0  0  0  0  0  0  0  0  0  0  0  0
  -17.4560  -13.2610   32.4300 C   0  0  0  0  0  0  0  0  0  0  0  0
  -16.1500  -13.4800   33.1360 C   0  0  0  0  0  0  0  0  0  0  0  0
  -16.1220  -14.1810   34.4620 C   0  0  0  0  0  0  0  0  0  0  0  0
  -17.4000  -14.6630   35.0820 C   0  0  0  0  0  0  0  0  0  0  0  0
  -19.6590  -16.0740   37.2320 H   0  0  0  0  0  0  0  0  0  0  0  0
  -19.6320  -13.5930   32.5660 H   0  0  0  0  0  0  0  0  0  0  0  0
  -15.2240  -14.3310   34.9470 H   0  0  0  0  0  0  0  0  0  0  0  0
  -17.4840  -12.5610   31.1050 O   0  0  0  0  0  0  0  0  0  0  0  0
  -18.4350  -13.0140   30.0370 C   0  0  0  0  0  0  0  0  0  0  0  0
  -19.0940  -13.8360   30.2210 H   0  0  0  0  0  0  0  0  0  0  0  0
  -18.4550  -12.5140   29.0910 H   0  0  0  0  0  0  0  0  0  0  0  0
  -19.1140  -13.3370   29.2750 H   0  0  0  0  0  0  0  0  0  0  0  0
  -14.8720  -12.9980   32.5150 O   0  0  0  0  0  0  0  0  0  0  0  0
  -13.5920  -13.7390   32.7620 C   0  0  0  0  0  0  0  0  0  0  0  0
  -13.5900  -14.6120   33.3810 H   0  0  0  0  0  0  0  0  0  0  0  0
  -12.6800  -13.3950   32.3190 H   0  0  0  0  0  0  0  0  0  0  0  0
  -12.6790  -14.2680   32.9390 H   0  0  0  0  0  0  0  0  0  0  0  0
  -15.1750  -16.1040   40.9590 C   0  0  0  0  0  0  0  0  0  0  0  0
  -15.2500  -17.3630   41.7700 O   0  0  0  0  0  0  0  0  0  0  0  0
  -14.7630  -14.8160   41.6100 O   0  0  0  0  0  0  0  0  0  0  0  0
  -13.3150  -14.4310   41.6600 C   0  0  0  0  0  0  0  0  0  0  0  0
  -13.0210  -13.5130   42.1240 H   0  0  0  0  0  0  0  0  0  0  0  0
  -12.5750  -15.0750   41.2330 H   0  0  0  0  0  0  0  0  0  0  0  0
  -12.2810  -14.1560   41.6970 H   0  0  0  0  0  0  0  0  0  0  0  0
  -13.3720  -17.4600   38.6000 O   0  0  0  0  0  0  0  0  0  0  0  0
  -12.0900  -16.6830   38.5670 C   0  0  0  0  0  0  0  0  0  0  0  0
  -11.6620  -16.3170   39.4760 H   0  0  0  0  0  0  0  0  0  0  0  0
  -11.1750  -16.1290   38.5420 H   0  0  0  0  0  0  0  0  0  0  0  0
  -11.4080  -16.4190   37.2570 C   0  0  0  0  0  0  0  0  0  0  0  0
  -12.1820  -15.8380   36.1110 C   0  0  0  0  0  0  0  0  0  0  0  0
  -11.4990  -15.5730   34.8020 C   0  0  0  0  0  0  0  0  0  0  0  0
  -10.0430  -15.8890   34.6380 C   0  0  0  0  0  0  0  0  0  0  0  0
   -9.2680  -16.4700   35.7850 C   0  0  0  0  0  0  0  0  0  0  0  0
   -9.9500  -16.7350   37.0930 C   0  0  0  0  0  0  0  0  0  0  0  0
  -13.1850  -15.6200   36.2240 H   0  0  0  0  0  0  0  0  0  0  0  0
  -12.0330  -15.1740   34.0140 H   0  0  0  0  0  0  0  0  0  0  0  0
   -9.5730  -15.7070   33.7370 H   0  0  0  0  0  0  0  0  0  0  0  0
   -8.2650  -16.6870   35.6710 H   0  0  0  0  0  0  0  0  0  0  0  0
   -9.1760  -17.3150   38.2390 C   0  0  0  0  0  0  0  0  0  0  0  0
   -8.4010  -17.8960   39.3850 F   0  0  0  0  0  0  0  0  0  0  0  0
   -9.3850  -18.6920   37.6830 F   0  0  0  0  0  0  0  0  0  0  0  0
   -8.9660  -15.9380   38.7950 F   0  0  0  0  0  0  0  0  0  0  0  0
  1 29  1  0
  2  1  1  0
  3  2  1  0
  4  3  2  0
  4  5  1  0
  5 36  1  0
  5  1  2  0
  6  4  1  0
  7  8  1  0
  7  3  1  0
  8 16  1  0
  9  8  2  0
 10 15  1  0
 10  9  1  0
 11 10  2  0
 12 11  1  0
 12 13  2  0
 13 14  1  0
 14 18  1  0
 14 15  2  0
 15  7  1  0
 17 11  1  0
 19 12  1  0
 20 21  1  0
 20 19  1  0
 22 20  1  0
 23 20  1  0
 24 25  1  0
 24 13  1  0
 25 28  1  0
 25 26  1  0
 27 25  1  0
 29 31  1  0
 29 30  2  0
 31 32  1  0
 32 35  1  0
 32 33  1  0
 34 32  1  0
 37 36  1  0
 37 38  1  0
 39 37  1  0
 40 37  1  0
 41 46  1  0
 41 40  2  0
 42 41  1  0
 43 42  2  0
 43 44  1  0
 44 45  2  0
 45 40  1  0
 45 50  1  0
 47 42  1  0
 48 43  1  0
 49 44  1  0
 50 53  1  0
 50 51  1  0
 52 50  1  0
M  END
>  <minimizedAffinity>  (335) 
-9.2942791

$$$$

     RDKit          3D

 80 76  0  0  1  0  0  0  0  0999 V2000
  -19.7950  -15.0320   36.8380 N   0  0  0  0  0  0  0  0  0  0  0  0
  -18.7740  -15.8170   37.6070 C   0  0  0  0  0  0  0  0  0  0  0  0
  -17.3800  -15.9600   37.0730 N   0  0  0  0  0  0  0  0  0  0  0  0
  -16.3580  -16.7440   37.8420 C   0  0  0  0  0  3  0  0  0  0  0  0
  -16.7320  -17.3860   39.1450 C   0  0  0  0  0  0  0  0  0  0  0  0
  -15.9450  -18.2140   40.1180 C   0  0  0  0  0  0  0  0  0  0  0  0
  -16.8530  -18.5820   41.2540 C   0  0  0  0  0  0  0  0  0  0  0  0
  -18.2010  -17.9830   40.9830 N   0  0  0  0  0  0  0  0  0  0  0  0
  -18.1260  -17.2430   39.6800 C   0  0  0  0  0  0  0  0  0  0  0  0
  -19.1470  -16.4590   38.9100 N   0  0  0  0  0  2  0  0  0  0  0  0
  -20.7100  -14.9390   37.1890 H   0  0  0  0  0  0  0  0  0  0  0  0
  -14.9530  -18.4820   40.0230 H   0  0  0  0  0  0  0  0  0  0  0  0
  -16.5960  -19.1490   42.0770 H   0  0  0  0  0  0  0  0  0  0  0  0
  -18.9960  -18.0610   41.5590 H   0  0  0  0  0  0  0  0  0  0  0  0
  -19.0590  -12.9350   35.4920 C   0  0  0  0  0  0  0  0  0  0  0  0
  -18.6860  -12.2930   34.1890 C   0  0  0  0  0  0  0  0  0  0  0  0
  -18.6750  -13.1070   32.9280 C   0  0  0  0  0  3  0  0  0  0  0  0
  -19.0370  -14.5610   32.9700 C   0  0  0  0  0  0  0  0  0  0  0  0
  -19.4100  -15.2040   34.2740 C   0  0  0  0  0  0  0  0  0  0  0  0
  -19.4220  -14.3900   35.5340 C   0  0  0  0  0  0  0  0  0  0  0  0
  -18.4370  -11.2920   34.1600 H   0  0  0  0  0  0  0  0  0  0  0  0
  -19.0290  -15.1200   32.1030 H   0  0  0  0  0  0  0  0  0  0  0  0
  -19.6590  -16.2050   34.3030 H   0  0  0  0  0  0  0  0  0  0  0  0
  -18.3010  -12.4640   31.6240 N   0  0  0  0  0 15  0  0  0  0  0  0
  -18.6150  -13.1560   30.3310 C   0  0  0  0  0  2  0  0  0  0  0  0
  -18.2410  -12.5140   29.0280 C   0  0  0  0  0  2  0  0  0  0  0  0
  -17.5540  -11.1800   29.0190 N   0  0  0  0  0  2  0  0  0  0  0  0
  -17.2410  -10.4890   30.3120 C   0  0  0  0  0  3  0  0  0  0  0  0
  -17.6140  -11.1310   31.6160 C   0  0  0  0  0  2  0  0  0  0  0  0
  -19.1050  -14.1070   30.3380 H   0  0  0  0  0  0  0  0  0  0  0  0
  -18.8380  -13.6490   29.4080 H   0  0  0  0  0  0  0  0  0  0  0  0
  -18.4650  -13.0070   28.1050 H   0  0  0  0  0  0  0  0  0  0  0  0
  -17.9750  -12.0560   28.0980 H   0  0  0  0  0  0  0  0  0  0  0  0
  -16.7510   -9.5380   30.3050 H   0  0  0  0  0  0  0  0  0  0  0  0
  -17.0170   -9.9960   31.2350 H   0  0  0  0  0  0  0  0  0  0  0  0
  -17.3900  -10.6370   32.5380 H   0  0  0  0  0  0  0  0  0  0  0  0
  -17.8800  -11.5880   32.5450 H   0  0  0  0  0  0  0  0  0  0  0  0
  -17.1810  -10.5380   27.7160 C   0  0  0  0  0  0  0  0  0  0  0  0
  -16.9150  -10.0800   26.7850 H   0  0  0  0  0  0  0  0  0  0  0  0
  -18.1770   -9.6850   26.9870 C   0  0  0  0  0  0  0  0  0  0  0  0
  -19.1530   -9.5340   27.3970 H   0  0  0  0  0  0  0  0  0  0  0  0
  -17.9100   -9.2270   26.0580 H   0  0  0  0  0  0  0  0  0  0  0  0
  -18.8870   -9.0760   26.4680 H   0  0  0  0  0  0  0  0  0  0  0  0
  -15.8120  -10.7490   27.1400 C   0  0  0  0  0  0  0  0  0  0  0  0
  -15.5450  -10.2920   26.2100 H   0  0  0  0  0  0  0  0  0  0  0  0
  -15.1020  -11.3580   27.6600 H   0  0  0  0  0  0  0  0  0  0  0  0
  -14.8350  -10.9010   26.7300 H   0  0  0  0  0  0  0  0  0  0  0  0
  -19.0710  -12.1220   36.7520 O   0  0  0  0  0  0  0  0  0  0  0  0
  -19.0370  -10.6240   36.6790 C   0  0  0  0  0  0  0  0  0  0  0  0
  -19.0050  -10.1360   35.7280 H   0  0  0  0  0  0  0  0  0  0  0  0
  -19.0460  -10.0440   37.5780 H   0  0  0  0  0  0  0  0  0  0  0  0
  -19.0130   -9.5560   36.6260 H   0  0  0  0  0  0  0  0  0  0  0  0
  -14.9640  -16.8870   37.3080 N   0  0  0  0  0  0  0  0  0  0  0  0
  -14.3660  -17.5790   37.6710 H   0  0  0  0  0  0  0  0  0  0  0  0
  -14.4800  -15.9740   36.2200 C   0  0  0  0  0  0  0  0  0  0  0  0
  -15.4620  -15.3480   35.2750 C   0  0  0  0  0  0  0  0  0  0  0  0
  -14.9780  -14.4350   34.1880 C   0  0  0  0  0  0  0  0  0  0  0  0
  -13.5130  -14.1480   34.0460 C   0  0  0  0  0  0  0  0  0  0  0  0
  -13.0290  -13.2350   32.9590 F   0  0  0  0  0  0  0  0  0  0  0  0
  -12.5310  -14.7740   34.9920 C   0  0  0  0  0  0  0  0  0  0  0  0
  -13.0150  -15.6870   36.0790 C   0  0  0  0  0  0  0  0  0  0  0  0
  -16.4700  -15.5460   35.3720 H   0  0  0  0  0  0  0  0  0  0  0  0
  -15.6530  -14.0040   33.5370 H   0  0  0  0  0  0  0  0  0  0  0  0
  -11.5220  -14.5760   34.8950 H   0  0  0  0  0  0  0  0  0  0  0  0
  -12.0330  -16.3130   37.0250 C   0  0  0  0  0  0  0  0  0  0  0  0
  -12.4730  -17.4170   37.9400 O   0  0  0  0  0  0  0  0  0  0  0  0
  -10.6120  -15.8340   37.0560 N   0  0  0  0  0  2  0  0  0  0  0  0
  -10.3230  -15.1100   36.4560 H   0  0  0  0  0  0  0  0  0  0  0  0
   -9.6300  -16.4600   38.0020 C   0  0  0  0  0  2  0  0  0  0  0  0
   -9.5890  -16.1370   39.0210 H   0  0  0  0  0  0  0  0  0  0  0  0
   -8.9300  -16.9070   38.6770 H   0  0  0  0  0  0  0  0  0  0  0  0
   -8.7070  -17.5390   37.5190 C   0  0  0  0  0  3  0  0  0  0  0  0
   -9.2830  -16.9740   36.8170 H   0  0  0  0  0  0  0  0  0  0  0  0
   -7.8990  -18.3320   38.5040 C   0  0  0  0  0  0  0  0  0  0  0  0
   -6.8340  -18.2350   38.5220 H   0  0  0  0  0  0  0  0  0  0  0  0
   -7.3220  -18.8960   39.2060 H   0  0  0  0  0  0  0  0  0  0  0  0
   -8.5840  -19.2590   39.4630 O   0  0  0  0  0  0  0  0  0  0  0  0
   -9.5510  -19.3460   39.4450 H   0  0  0  0  0  0  0  0  0  0  0  0
   -8.5920  -17.8260   36.0510 O   0  0  0  0  0  0  0  0  0  0  0  0
   -9.1140  -17.3140   35.4140 H   0  0  0  0  0  0  0  0  0  0  0  0
  1 11  1  0
  1  2  1  0
  2 10  1  0
  3  2  2  0
  3  4  1  0
  4 53  1  0
  4  5  1  0
  5  9  2  0
  5  6  1  0
  6  7  2  0
  7 13  1  0
  8  7  1  0
  8 14  1  0
  9  8  1  0
 10  9  1  0
 12  6  1  0
 15 20  1  0
 15 48  1  0
 16 15  2  0
 17 18  2  0
 17 16  1  0
 18 19  1  0
 19 23  1  0
 19 20  2  0
 20  1  1  0
 21 16  1  0
 22 18  1  0
 25 30  1  0
 27 28  1  0
 28 35  1  0
 29 36  1  0
 29 37  1  0
 31 25  1  0
 32 26  1  0
 33 26  1  0
 34 28  1  0
 38 27  1  0
 39 38  1  0
 40 41  1  0
 40 38  1  0
 42 40  1  0
 43 40  1  0
 44 46  1  0
 44 38  1  0
 45 44  1  0
 47 44  1  0
 49 48  1  0
 49 51  1  0
 50 49  1  0
 52 49  1  0
 53 54  1  0
 55 53  1  0
 56 62  1  0
 56 55  2  0
 57 56  1  0
 58 57  2  0
 58 60  1  0
 59 58  1  0
 60 61  2  0
 61 55  1  0
 61 65  1  0
 63 57  1  0
 64 60  1  0
 65 67  1  0
 65 66  2  0
 68 67  1  0
 69 71  1  0
 69 70  1  0
 72 74  1  0
 73 72  1  0
 74 75  1  0
 74 76  1  0
 74 77  1  0
 78 77  1  0
 79 72  1  0
 80 79  1  0
M  END
>  <minimizedAffinity>  (336) 
-11.0770054

$$$$

     RDKit          3D

 28 27  0  0  0  0  0  0  0  0999 V2000
  -12.1300  -16.3320   37.0110 N   0  0  0  0  0 15  0  0  0  0  0  0
  -13.4970  -16.0850   37.5770 C   0  0  0  0  0  2  0  0  0  0  0  0
  -14.2670  -15.2610   36.5880 N   0  0  0  0  0  2  0  0  0  0  0  0
  -13.3760  -14.9990   35.4100 C   0  0  0  0  0  0  0  0  0  0  0  0
  -13.5960  -14.2430   34.1330 C   0  0  0  0  0  0  0  0  0  0  0  0
  -12.4960  -14.1490   33.1170 C   0  0  0  0  0  0  0  0  0  0  0  0
  -11.1750  -14.8110   33.3790 C   0  0  0  0  0  0  0  0  0  0  0  0
  -10.9550  -15.5670   34.6560 C   0  0  0  0  0  0  0  0  0  0  0  0
  -12.0550  -15.6610   35.6710 C   0  0  0  0  0  3  0  0  0  0  0  0
  -14.5050  -13.7880   33.9530 H   0  0  0  0  0  0  0  0  0  0  0  0
  -12.6470  -13.6290   32.2390 H   0  0  0  0  0  0  0  0  0  0  0  0
  -10.4180  -14.7460   32.6800 H   0  0  0  0  0  0  0  0  0  0  0  0
  -10.0460  -16.0220   34.8360 H   0  0  0  0  0  0  0  0  0  0  0  0
  -14.0050  -16.5750   38.9000 C   0  0  0  0  0  0  0  0  0  0  0  0
  -13.4550  -16.2070   40.2470 N   0  0  0  0  0  0  0  0  0  0  0  0
  -14.2630  -16.9250   41.2880 O   0  0  0  0  0  0  0  0  0  0  0  0
  -15.3110  -17.7360   40.5860 N   0  0  0  0  0  0  0  0  0  0  0  0
  -15.1520  -17.5200   39.1090 C   0  0  0  0  0  0  0  0  0  0  0  0
  -15.9910  -18.1400   38.0330 N   0  0  0  0  0  0  0  0  0  0  0  0
  -15.8080  -17.9360   37.0870 H   0  0  0  0  0  0  0  0  0  0  0  0
  -16.7250  -18.7510   38.2700 H   0  0  0  0  0  0  0  0  0  0  0  0
  -11.0310  -17.1120   37.6680 C   0  0  0  0  0  3  0  0  0  0  0  0
  -10.9450  -18.1650   37.4950 H   0  0  0  0  0  0  0  0  0  0  0  0
  -11.7290  -17.6080   37.0260 H   0  0  0  0  0  0  0  0  0  0  0  0
  -10.0520  -16.4190   38.5680 C   0  0  0  0  0  0  0  0  0  0  0  0
  -10.1380  -15.3660   38.7410 H   0  0  0  0  0  0  0  0  0  0  0  0
   -9.2690  -16.9750   39.0370 H   0  0  0  0  0  0  0  0  0  0  0  0
   -9.3540  -15.9230   39.2100 H   0  0  0  0  0  0  0  0  0  0  0  0
  2 14  1  0
  3  2  1  0
  4  9  1  0
  4  3  1  0
  5  4  2  0
  6  7  2  0
  6  5  1  0
  7  8  1  0
  8 13  1  0
  8  9  2  0
 10  5  1  0
 11  6  1  0
 12  7  1  0
 14 18  1  0
 14 15  2  0
 15 16  1  0
 17 16  1  0
 18 17  2  0
 19 21  1  0
 19 18  1  0
 20 19  1  0
 22 25  1  0
 23 22  1  0
 24 22  1  0
 25 26  1  0
 25 27  1  0
 25 28  1  0
M  END
>  <minimizedAffinity>  (337) 
-8.11431599

$$$$

     RDKit          3D

 44 49  0  0  0  0  0  0  0  0999 V2000
  -17.9290  -12.5550   32.2100 C   0  0  0  0  0  0  0  0  0  0  0  0
  -17.1190  -12.2030   30.9980 C   0  0  0  0  0  0  0  0  0  0  0  0
  -15.6660  -12.5720   30.9340 C   0  0  0  0  0  0  0  0  0  0  0  0
  -15.0240  -13.2930   32.0820 C   0  0  0  0  0  0  0  0  0  0  0  0
  -13.6240  -13.7820   32.3030 N   0  0  0  0  0  0  0  0  0  0  0  0
  -13.5690  -14.4370   33.6520 C   0  0  0  0  0  0  0  0  0  0  0  0
  -12.4510  -15.0990   34.4010 C   0  0  0  0  0  0  0  0  0  0  0  0
  -11.0100  -15.3310   34.0550 N   0  0  0  0  0  0  0  0  0  0  0  0
  -10.3680  -16.0520   35.2030 C   0  0  0  0  0  0  0  0  0  0  0  0
   -8.9670  -16.5410   35.4250 C   0  0  0  0  0  0  0  0  0  0  0  0
   -8.6110  -17.2440   36.7010 C   0  0  0  0  0  0  0  0  0  0  0  0
   -9.6550  -17.4580   37.7570 C   0  0  0  0  0  0  0  0  0  0  0  0
  -11.0560  -16.9680   37.5360 C   0  0  0  0  0  0  0  0  0  0  0  0
  -11.4120  -16.2650   36.2590 C   0  0  0  0  0  0  0  0  0  0  0  0
  -12.6990  -15.6760   35.7630 C   0  0  0  0  0  0  0  0  0  0  0  0
  -14.0670  -15.5910   36.3760 C   0  0  0  0  0  0  0  0  0  0  0  0
  -15.1840  -14.9290   35.6260 C   0  0  0  0  0  0  0  0  0  0  0  0
  -14.9350  -14.3520   34.2650 C   0  0  0  0  0  0  0  0  0  0  0  0
  -15.8350  -13.6450   33.2940 C   0  0  0  0  0  0  0  0  0  0  0  0
  -17.2880  -13.2760   33.3580 C   0  0  0  0  0  0  0  0  0  0  0  0
  -16.4170  -14.9940   36.4790 C   0  0  0  0  0  0  0  0  0  0  0  0
  -17.7680  -14.4520   36.1190 O   0  0  0  0  0  0  0  0  0  0  0  0
  -16.0600  -15.6970   37.7550 N   0  0  0  0  0  0  0  0  0  0  0  0
  -14.6080  -16.0660   37.6920 C   0  0  0  0  0  0  0  0  0  0  0  0
  -13.8320  -16.7840   38.7560 O   0  0  0  0  0  0  0  0  0  0  0  0
  -17.5600  -11.7080   30.2070 H   0  0  0  0  0  0  0  0  0  0  0  0
  -15.1090  -12.3300   30.1000 H   0  0  0  0  0  0  0  0  0  0  0  0
  -12.8720  -13.6900   31.6740 H   0  0  0  0  0  0  0  0  0  0  0  0
  -10.5640  -15.0580   33.2210 H   0  0  0  0  0  0  0  0  0  0  0  0
   -8.2480  -16.3940   34.6980 H   0  0  0  0  0  0  0  0  0  0  0  0
   -7.6480  -17.5810   36.8540 H   0  0  0  0  0  0  0  0  0  0  0  0
  -11.7750  -17.1150   38.2620 H   0  0  0  0  0  0  0  0  0  0  0  0
  -17.8450  -13.5180   34.1920 H   0  0  0  0  0  0  0  0  0  0  0  0
  -16.6730  -15.8830   38.5030 H   0  0  0  0  0  0  0  0  0  0  0  0
  -19.3820  -12.1860   32.2730 O   0  0  0  0  0  0  0  0  0  0  0  0
  -19.7950  -10.8610   32.8400 C   0  0  0  0  0  0  0  0  0  0  0  0
  -19.0530  -10.1770   33.2000 H   0  0  0  0  0  0  0  0  0  0  0  0
  -20.8310  -10.5970   32.8860 H   0  0  0  0  0  0  0  0  0  0  0  0
  -20.0890   -9.9140   33.2450 H   0  0  0  0  0  0  0  0  0  0  0  0
   -9.3000  -18.1600   39.0330 O   0  0  0  0  0  0  0  0  0  0  0  0
   -7.9000  -18.6500   39.2550 C   0  0  0  0  0  0  0  0  0  0  0  0
   -7.1540  -18.4990   38.5020 H   0  0  0  0  0  0  0  0  0  0  0  0
   -7.6450  -19.1520   40.1650 H   0  0  0  0  0  0  0  0  0  0  0  0
   -6.9010  -19.0000   39.4130 H   0  0  0  0  0  0  0  0  0  0  0  0
  1 35  1  0
  1 20  1  0
  2  1  2  0
  3  2  1  0
  3  4  2  0
  4  5  1  0
  4 19  1  0
  5  6  1  0
  6 18  2  0
  6  7  1  0
  7 15  2  0
  8  7  1  0
  8  9  1  0
  9 10  2  0
  9 14  1  0
 10 11  1  0
 11 31  1  0
 11 12  2  0
 12 40  1  0
 13 12  1  0
 13 32  1  0
 14 13  2  0
 15 14  1  0
 15 16  1  0
 16 24  1  0
 17 16  2  0
 17 21  1  0
 18 17  1  0
 19 20  2  0
 19 18  1  0
 20 33  1  0
 21 23  1  0
 22 21  2  0
 23 34  1  0
 24 23  1  0
 24 25  2  0
 26  2  1  0
 27  3  1  0
 28  5  1  0
 29  8  1  0
 30 10  1  0
 35 36  1  0
 36 38  1  0
 36 37  1  0
 36 39  1  0
 40 41  1  0
 41 44  1  0
 41 43  1  0
 42 41  1  0
M  END
>  <minimizedAffinity>  (338) 
-8.91202736

$$$$

     RDKit          3D

 32 33  0  0  0  0  0  0  0  0999 V2000
  -10.7940  -15.8850   35.2660 C   0  0  0  0  0  0  0  0  0  0  0  0
  -10.5630  -15.6670   33.8000 C   0  0  0  0  0  0  0  0  0  0  0  0
  -11.6840  -15.1860   32.9280 N   0  0  0  0  0  0  0  0  0  0  0  0
  -13.0360  -14.9220   33.5210 C   0  0  0  0  0  0  0  0  0  0  0  0
  -13.2670  -15.1390   34.9870 C   0  0  0  0  0  0  0  0  0  0  0  0
  -12.1460  -15.6200   35.8600 C   0  0  0  0  0  0  0  0  0  0  0  0
   -9.6330  -15.8490   33.3920 H   0  0  0  0  0  0  0  0  0  0  0  0
  -13.8070  -14.5900   32.9210 H   0  0  0  0  0  0  0  0  0  0  0  0
  -12.3050  -15.7700   36.8690 H   0  0  0  0  0  0  0  0  0  0  0  0
   -9.6800  -16.0600   37.6070 N   0  0  0  0  0  0  0  0  0  0  0  0
   -9.6730  -16.3660   36.1390 C   0  0  0  0  0  0  0  0  0  0  0  0
   -8.5440  -17.1540   35.5430 O   0  0  0  0  0  0  0  0  0  0  0  0
  -10.4210  -15.5420   37.9990 H   0  0  0  0  0  0  0  0  0  0  0  0
   -8.5590  -16.5410   38.4800 C   0  0  0  0  0  0  0  0  0  0  0  0
   -8.5650  -16.3220   39.5270 H   0  0  0  0  0  0  0  0  0  0  0  0
   -7.7540  -17.1030   38.0540 H   0  0  0  0  0  0  0  0  0  0  0  0
   -7.7600  -16.8850   39.1020 H   0  0  0  0  0  0  0  0  0  0  0  0
  -14.6190  -14.8740   35.5810 C   0  0  0  0  0  0  0  0  0  0  0  0
  -15.6530  -15.9610   35.6050 C   0  0  0  0  0  0  0  0  0  0  0  0
  -14.8380  -13.9450   35.9730 H   0  0  0  0  0  0  0  0  0  0  0  0
  -15.4340  -16.8900   35.2140 H   0  0  0  0  0  0  0  0  0  0  0  0
  -17.0050  -15.6970   36.1990 C   0  0  0  0  0  0  0  0  0  0  0  0
  -17.3130  -16.1520   37.5940 C   0  0  0  0  0  0  0  0  0  0  0  0
  -16.2700  -16.8720   38.3960 Cl  0  0  0  0  0  0  0  0  0  0  0  0
  -18.6650  -15.8880   38.1880 C   0  0  0  0  0  0  0  0  0  0  0  0
  -19.7080  -15.1680   37.3860 C   0  0  0  0  0  0  0  0  0  0  0  0
  -19.4000  -14.7120   35.9900 C   0  0  0  0  0  0  0  0  0  0  0  0
  -18.0480  -14.9770   35.3970 C   0  0  0  0  0  0  0  0  0  0  0  0
  -17.7400  -14.5210   34.0020 Cl  0  0  0  0  0  0  0  0  0  0  0  0
  -18.8770  -16.2010   39.1480 H   0  0  0  0  0  0  0  0  0  0  0  0
  -20.6390  -14.9860   37.7950 H   0  0  0  0  0  0  0  0  0  0  0  0
  -20.1180  -14.2170   35.4390 H   0  0  0  0  0  0  0  0  0  0  0  0
  1  6  1  0
  1 11  1  0
  2  1  2  0
  3  4  2  0
  3  2  1  0
  4  5  1  0
  5 18  1  0
  5  6  2  0
  6  9  1  0
  7  2  1  0
  8  4  1  0
 10 13  1  0
 10 14  1  0
 11 10  1  0
 12 11  2  0
 14 17  1  0
 14 15  1  0
 16 14  1  0
 18 19  2  0
 18 20  1  0
 19 22  1  0
 21 19  1  0
 22 23  1  0
 23 25  2  0
 23 24  1  0
 25 30  1  0
 26 31  1  0
 26 25  1  0
 27 26  2  0
 28 27  1  0
 28 22  2  0
 29 28  1  0
 32 27  1  0
M  END
>  <minimizedAffinity>  (339) 
-7.54822969

$$$$

     RDKit          3D

 44 44  0  0  0  0  0  0  0  0999 V2000
  -12.7910  -14.9220   34.9590 C   0  0  0  0  0  0  0  0  0  0  0  0
  -12.1720  -14.3570   33.7150 C   0  0  0  0  0  0  0  0  0  0  0  0
  -13.0320  -13.6700   32.6960 C   0  0  0  0  0  0  0  0  0  0  0  0
  -14.5100  -13.5490   32.9200 C   0  0  0  0  0  0  0  0  0  0  0  0
  -15.6030  -12.9310   32.0990 C   0  0  0  0  0  0  0  0  0  0  0  0
  -15.4320  -12.2490   30.7740 N   0  0  0  0  0  0  0  0  0  0  0  0
  -16.6240  -11.6750   30.0670 C   0  0  0  0  0  0  0  0  0  0  0  0
  -17.9860  -11.7840   30.6840 O   0  0  0  0  0  0  0  0  0  0  0  0
  -16.8970  -13.1140   32.8360 N   0  0  0  0  0  0  0  0  0  0  0  0
  -16.6030  -13.8460   34.1120 N   0  0  0  0  0  0  0  0  0  0  0  0
  -15.1290  -14.1150   34.1640 C   0  0  0  0  0  0  0  0  0  0  0  0
  -14.2690  -14.8010   35.1840 C   0  0  0  0  0  0  0  0  0  0  0  0
  -11.1550  -14.4400   33.5610 H   0  0  0  0  0  0  0  0  0  0  0  0
  -12.6070  -13.2810   31.8400 H   0  0  0  0  0  0  0  0  0  0  0  0
  -14.5370  -12.1780   30.3690 H   0  0  0  0  0  0  0  0  0  0  0  0
  -17.2630  -14.1050   34.7960 H   0  0  0  0  0  0  0  0  0  0  0  0
  -14.6940  -15.1910   36.0400 H   0  0  0  0  0  0  0  0  0  0  0  0
  -10.2110  -16.9820   38.0180 C   0  0  0  0  0  0  0  0  0  0  0  0
  -11.7030  -16.9760   38.1760 C   0  0  0  0  0  0  0  0  0  0  0  0
  -12.5630  -16.2900   37.1560 C   0  0  0  0  0  0  0  0  0  0  0  0
  -11.9310  -15.6090   35.9790 C   0  0  0  0  0  0  0  0  0  0  0  0
  -10.4390  -15.6150   35.8210 C   0  0  0  0  0  0  0  0  0  0  0  0
   -9.5800  -16.3010   36.8400 C   0  0  0  0  0  0  0  0  0  0  0  0
  -12.1380  -17.4450   38.9860 H   0  0  0  0  0  0  0  0  0  0  0  0
  -13.5890  -16.2860   37.2650 H   0  0  0  0  0  0  0  0  0  0  0  0
  -10.0050  -15.1460   35.0100 H   0  0  0  0  0  0  0  0  0  0  0  0
   -8.5530  -16.3050   36.7310 H   0  0  0  0  0  0  0  0  0  0  0  0
   -9.3520  -17.6690   39.0370 N   0  0  0  0  0  0  0  0  0  0  0  0
   -9.6250  -17.6830   39.9820 H   0  0  0  0  0  0  0  0  0  0  0  0
   -8.0750  -18.3340   38.6160 S   0  0  2  0  0  0  0  0  0  0  0  0
   -8.8300  -19.5960   38.3220 O   0  0  0  0  0  0  0  0  0  0  0  0
   -7.3200  -17.0710   38.9100 O   0  0  0  0  0  0  0  0  0  0  0  0
   -6.7980  -18.9990   38.1950 C   0  0  0  0  0  0  0  0  0  0  0  0
   -6.8090  -20.0160   37.8630 H   0  0  0  0  0  0  0  0  0  0  0  0
   -5.8760  -18.4560   38.2260 H   0  0  0  0  0  0  0  0  0  0  0  0
   -5.8870  -19.4740   37.8940 H   0  0  0  0  0  0  0  0  0  0  0  0
  -16.4530  -10.9930   28.7420 C   0  0  0  0  0  1  0  0  0  0  0  0
  -16.0810   -9.7780   27.9440 C   0  0  0  0  0  2  0  0  0  0  0  0
  -16.5280  -11.0270   27.2440 C   0  0  0  0  0  3  0  0  0  0  0  0
  -16.3310  -10.5070   27.7960 H   0  0  0  0  0  0  0  0  0  0  0  0
  -15.7450   -8.7640   27.9050 H   0  0  0  0  0  0  0  0  0  0  0  0
  -16.0460   -9.5390   26.9020 H   0  0  0  0  0  0  0  0  0  0  0  0
  -16.7420  -11.5560   26.3380 H   0  0  0  0  0  0  0  0  0  0  0  0
  -16.8390  -12.0010   27.5590 H   0  0  0  0  0  0  0  0  0  0  0  0
  1 12  1  0
  1 21  1  0
  2  1  2  0
  3  4  2  0
  3  2  1  0
  4 11  1  0
  5  9  2  0
  5  4  1  0
  6  5  1  0
  7  8  2  0
  7  6  1  0
  9 10  1  0
 10 11  1  0
 10 16  1  0
 11 12  2  0
 12 17  1  0
 13  2  1  0
 14  3  1  0
 15  6  1  0
 18 19  1  0
 18 28  1  0
 19 24  1  0
 20 25  1  0
 20 19  2  0
 21 20  1  0
 22 21  2  0
 22 23  1  0
 23 18  2  0
 26 22  1  0
 27 23  1  0
 28 29  1  0
 30 32  2  0
 30 28  1  0
 31 30  2  0
 33 35  1  0
 33 30  1  0
 34 33  1  0
 36 33  1  0
 37  7  1  0
 39 44  1  0
 39 40  1  0
 41 38  1  0
 42 38  1  0
 43 39  1  0
M  END
>  <minimizedAffinity>  (340) 
-9.32795906

$$$$

     RDKit          3D

 66 66  0  0  0  0  0  0  0  0999 V2000
  -18.5810  -15.0910   37.5750 N   0  0  0  0  0  0  0  0  0  0  0  0
  -19.4910  -12.5520   33.9720 C   0  0  0  0  0  0  0  0  0  0  0  0
  -19.4430  -14.0460   33.8440 C   0  0  0  0  0  0  0  0  0  0  0  0
  -19.1390  -14.8920   35.0450 C   0  0  0  0  0  0  0  0  0  0  0  0
  -18.8840  -14.2440   36.3740 C   0  0  0  0  0  0  0  0  0  0  0  0
  -18.9330  -12.7510   36.5020 C   0  0  0  0  0  0  0  0  0  0  0  0
  -19.2360  -11.9050   35.3010 C   0  0  0  0  0  0  0  0  0  0  0  0
  -19.6180  -14.4920   32.9300 H   0  0  0  0  0  0  0  0  0  0  0  0
  -19.1060  -15.9200   34.9570 H   0  0  0  0  0  0  0  0  0  0  0  0
  -18.7580  -12.3050   37.4160 H   0  0  0  0  0  0  0  0  0  0  0  0
  -19.2700  -10.8770   35.3890 H   0  0  0  0  0  0  0  0  0  0  0  0
  -19.0140  -10.5390   30.5860 N   0  0  0  0  0  2  0  0  0  0  0  0
  -18.7100  -11.3850   31.7860 C   0  0  0  0  0  0  0  0  0  0  0  0
  -17.3220  -11.9110   32.0020 O   0  0  0  0  0  0  0  0  0  0  0  0
  -19.7950  -11.7060   32.7710 N   0  0  0  0  0  0  0  0  0  0  0  0
  -19.9250  -10.1940   30.4440 H   0  0  0  0  0  0  0  0  0  0  0  0
  -20.7070  -11.3610   32.6300 H   0  0  0  0  0  0  0  0  0  0  0  0
  -17.9290  -10.2180   29.6010 C   0  0  0  0  0  2  0  0  0  0  0  0
  -17.3490   -9.3260   29.7150 H   0  0  0  0  0  0  0  0  0  0  0  0
  -18.1230   -9.5550   30.4170 H   0  0  0  0  0  0  0  0  0  0  0  0
  -17.6560  -11.1480   28.4560 C   0  0  0  0  0  3  0  0  0  0  0  0
  -16.7010  -11.1380   27.9740 H   0  0  0  0  0  0  0  0  0  0  0  0
  -16.8950  -10.4750   28.7910 H   0  0  0  0  0  0  0  0  0  0  0  0
  -18.7230  -12.0920   27.9860 N   0  0  0  0  0  0  0  0  0  0  0  0
  -18.7690  -13.4950   28.5140 C   0  0  0  0  0  0  0  0  0  0  0  0
  -19.5300  -14.1690   28.1790 H   0  0  0  0  0  0  0  0  0  0  0  0
  -18.0400  -13.8230   29.2260 H   0  0  0  0  0  0  0  0  0  0  0  0
  -18.8020  -14.4960   28.8910 H   0  0  0  0  0  0  0  0  0  0  0  0
  -19.7450  -11.6330   26.9880 C   0  0  0  0  0  0  0  0  0  0  0  0
  -19.7120  -10.6320   26.6110 H   0  0  0  0  0  0  0  0  0  0  0  0
  -20.5060  -12.3060   26.6520 H   0  0  0  0  0  0  0  0  0  0  0  0
  -20.4730  -11.3050   26.2760 H   0  0  0  0  0  0  0  0  0  0  0  0
  -17.1610  -15.2790   38.0200 C   0  0  0  0  0  0  0  0  0  0  0  0
  -16.8100  -15.1670   39.4740 C   0  0  0  0  0  0  0  0  0  0  0  0
  -15.3900  -15.3550   39.9200 C   0  0  0  0  0  0  0  0  0  0  0  0
  -14.3210  -15.6540   38.9110 N   0  0  0  0  0  0  0  0  0  0  0  0
  -14.6720  -15.7660   37.4570 C   0  0  0  0  0  0  0  0  0  0  0  0
  -13.6030  -16.0660   36.4490 N   0  0  0  0  0  0  0  0  0  0  0  0
  -16.0920  -15.5780   37.0120 N   0  0  0  0  0  0  0  0  0  0  0  0
  -17.5460  -14.9610   40.1680 H   0  0  0  0  0  0  0  0  0  0  0  0
  -15.1490  -15.2780   40.9200 H   0  0  0  0  0  0  0  0  0  0  0  0
  -13.8330  -16.1390   35.4950 H   0  0  0  0  0  0  0  0  0  0  0  0
  -12.1830  -16.2540   36.8940 C   0  0  0  0  0  0  0  0  0  0  0  0
  -11.0570  -15.7440   36.0450 C   0  0  0  0  0  0  0  0  0  0  0  0
   -9.6370  -15.9310   36.4910 C   0  0  0  0  0  0  0  0  0  0  0  0
   -9.3430  -16.6300   37.7850 C   0  0  0  0  0  0  0  0  0  0  0  0
  -10.4700  -17.1400   38.6350 C   0  0  0  0  0  0  0  0  0  0  0  0
  -11.8900  -16.9520   38.1890 C   0  0  0  0  0  0  0  0  0  0  0  0
  -11.2590  -15.2630   35.1540 H   0  0  0  0  0  0  0  0  0  0  0  0
   -8.8620  -15.5800   35.9070 H   0  0  0  0  0  0  0  0  0  0  0  0
  -10.2680  -17.6210   39.5250 H   0  0  0  0  0  0  0  0  0  0  0  0
  -12.6650  -17.3030   38.7730 H   0  0  0  0  0  0  0  0  0  0  0  0
   -7.9240  -16.8180   38.2310 C   0  0  0  0  0  0  0  0  0  0  0  0
   -7.2820  -15.9690   38.3470 H   0  0  0  0  0  0  0  0  0  0  0  0
   -6.9100  -16.9520   38.5490 H   0  0  0  0  0  0  0  0  0  0  0  0
   -7.4030  -18.1950   38.5150 S   0  0  1  0  0  0  0  0  0  0  0  0
   -7.5540  -18.5510   37.0650 O   0  0  0  0  0  0  0  0  0  0  0  0
   -7.2510  -17.8400   39.9640 O   0  0  0  0  0  0  0  0  0  0  0  0
   -6.8820  -19.5730   38.7980 C   0  0  0  0  0  0  0  0  0  0  0  0
   -6.7890  -20.2840   38.0050 H   0  0  0  0  0  0  0  0  0  0  0  0
   -6.6020  -19.8450   39.7950 H   0  0  0  0  0  0  0  0  0  0  0  0
   -6.5100  -20.5560   39.0010 H   0  0  0  0  0  0  0  0  0  0  0  0
  -19.6970  -15.7490   38.3300 C   0  0  0  0  0  0  0  0  0  0  0  0
  -20.7110  -15.6150   38.0120 H   0  0  0  0  0  0  0  0  0  0  0  0
  -19.4810  -16.3520   39.1870 H   0  0  0  0  0  0  0  0  0  0  0  0
  -20.4940  -16.2180   38.8690 H   0  0  0  0  0  0  0  0  0  0  0  0
  1 33  1  0
  1 63  1  0
  2  7  1  0
  3  2  2  0
  3  4  1  0
  4  5  2  0
  5  6  1  0
  5  1  1  0
  6 10  1  0
  7 11  1  0
  7  6  2  0
  8  3  1  0
  9  4  1  0
 12 13  1  0
 13 14  2  0
 13 15  1  0
 15  2  1  0
 16 12  1  0
 17 15  1  0
 18 19  1  0
 18 20  1  0
 21 23  1  0
 22 21  1  0
 24 21  1  0
 24 25  1  0
 25 28  1  0
 25 27  1  0
 26 25  1  0
 29 24  1  0
 30 29  1  0
 31 29  1  0
 32 29  1  0
 33 34  1  0
 34 35  2  0
 34 40  1  0
 35 41  1  0
 36 35  1  0
 37 36  2  0
 38 43  1  0
 38 37  1  0
 39 37  1  0
 39 33  2  0
 42 38  1  0
 43 48  1  0
 44 45  1  0
 44 43  2  0
 45 46  2  0
 46 53  1  0
 46 47  1  0
 47 51  1  0
 48 47  2  0
 48 52  1  0
 49 44  1  0
 50 45  1  0
 53 54  1  0
 53 56  1  0
 53 55  1  0
 56 59  1  0
 56 58  2  0
 57 56  2  0
 59 62  1  0
 59 61  1  0
 60 59  1  0
 63 66  1  0
 63 65  1  0
 64 63  1  0
M  END
>  <minimizedAffinity>  (341) 
-8.5399847

$$$$

     RDKit          3D

 44 42  0  0  0  0  0  0  0  0999 V2000
  -15.8610  -15.7310   36.9810 C   0  0  0  0  0  0  0  0  0  0  0  0
  -15.5710  -15.4030   35.5460 C   0  0  0  0  0  0  0  0  0  0  0  0
  -16.8810  -15.2200   34.8380 N   0  0  0  0  0  0  0  0  0  0  0  0
  -17.9800  -15.4340   35.8360 C   0  0  0  0  0  0  0  0  0  0  0  0
  -17.3500  -15.7510   37.1600 N   0  0  0  0  0  0  0  0  0  0  0  0
  -18.9930  -15.3750   35.6450 H   0  0  0  0  0  0  0  0  0  0  0  0
  -18.0800  -16.0360   38.4380 C   0  0  0  0  0  2  0  0  0  0  0  0
  -18.1790  -17.4430   38.9480 C   0  0  0  0  0  2  0  0  0  0  0  0
  -18.9090  -17.7290   40.2260 C   0  0  0  0  0  2  0  0  0  0  0  0
  -19.5420  -16.6070   40.9960 N   0  0  0  0  0  2  0  0  0  0  0  0
  -19.4440  -15.2000   40.4860 C   0  0  0  0  0  3  0  0  0  0  0  0
  -18.7130  -14.9140   39.2080 C   0  0  0  0  0  2  0  0  0  0  0  0
  -18.6020  -16.2400   39.3510 H   0  0  0  0  0  0  0  0  0  0  0  0
  -17.7270  -18.2430   38.3990 H   0  0  0  0  0  0  0  0  0  0  0  0
  -18.2490  -18.4480   39.3110 H   0  0  0  0  0  0  0  0  0  0  0  0
  -18.9790  -18.7330   40.5900 H   0  0  0  0  0  0  0  0  0  0  0  0
  -19.4310  -17.9330   41.1390 H   0  0  0  0  0  0  0  0  0  0  0  0
  -20.0390  -16.8020   41.8660 H   0  0  0  0  0  0  0  0  0  0  0  0
  -19.8950  -14.4000   41.0350 H   0  0  0  0  0  0  0  0  0  0  0  0
  -19.3740  -14.1960   40.1230 H   0  0  0  0  0  0  0  0  0  0  0  0
  -18.6430  -13.9100   38.8440 H   0  0  0  0  0  0  0  0  0  0  0  0
  -18.1920  -14.7110   38.2950 H   0  0  0  0  0  0  0  0  0  0  0  0
  -13.8170  -14.6100   41.6240 N   0  0  0  0  0  0  0  0  0  0  0  0
  -13.8190  -15.4330   40.3710 C   0  0  0  0  0  0  0  0  0  0  0  0
  -12.8010  -16.5190   40.1850 N   0  0  0  0  0  0  0  0  0  0  0  0
  -12.8030  -17.3420   38.9310 C   0  0  0  0  0  0  0  0  0  0  0  0
  -13.8230  -17.0800   37.8630 C   0  0  0  0  0  0  0  0  0  0  0  0
  -14.8410  -15.9940   38.0490 C   0  0  0  0  0  0  0  0  0  0  0  0
  -14.8390  -15.1710   39.3030 N   0  0  0  0  0  0  0  0  0  0  0  0
  -13.1470  -14.7830   42.3250 H   0  0  0  0  0  0  0  0  0  0  0  0
  -14.4850  -13.8970   41.7460 H   0  0  0  0  0  0  0  0  0  0  0  0
  -12.1020  -18.0900   38.8030 H   0  0  0  0  0  0  0  0  0  0  0  0
  -13.8250  -17.6460   37.0000 H   0  0  0  0  0  0  0  0  0  0  0  0
  -14.2100  -15.2800   34.9280 C   0  0  0  0  0  0  0  0  0  0  0  0
  -13.9100  -15.9740   33.6310 C   0  0  0  0  0  0  0  0  0  0  0  0
  -12.5490  -15.8510   33.0140 C   0  0  0  0  0  0  0  0  0  0  0  0
  -11.4880  -15.0350   33.6900 C   0  0  0  0  0  0  0  0  0  0  0  0
  -10.1270  -14.9130   33.0720 F   0  0  0  0  0  0  0  0  0  0  0  0
  -11.7880  -14.3420   34.9860 C   0  0  0  0  0  0  0  0  0  0  0  0
  -13.1500  -14.4650   35.6050 C   0  0  0  0  0  0  0  0  0  0  0  0
  -14.6390  -16.5350   33.1650 H   0  0  0  0  0  0  0  0  0  0  0  0
  -12.3430  -16.3280   32.1210 H   0  0  0  0  0  0  0  0  0  0  0  0
  -11.0580  -13.7800   35.4520 H   0  0  0  0  0  0  0  0  0  0  0  0
  -13.3560  -13.9880   36.4960 H   0  0  0  0  0  0  0  0  0  0  0  0
  1  5  1  0
  1 28  1  0
  2  1  2  0
  3  2  1  0
  3  4  2  0
  4  5  1  0
  5  7  1  0
  6  4  1  0
  7 13  1  0
  8 15  1  0
  9 16  1  0
  9 17  1  0
 10 18  1  0
 11 10  1  0
 11 19  1  0
 14  8  1  0
 20 11  1  0
 21 12  1  0
 22 12  1  0
 23 31  1  0
 23 30  1  0
 24 23  1  0
 25 24  2  0
 26 25  1  0
 27 28  1  0
 27 26  2  0
 28 29  2  0
 29 24  1  0
 32 26  1  0
 33 27  1  0
 34  2  1  0
 34 40  1  0
 35 34  2  0
 36 35  1  0
 36 37  2  0
 37 39  1  0
 38 37  1  0
 39 43  1  0
 39 40  2  0
 40 44  1  0
 41 35  1  0
 42 36  1  0
M  END
>  <minimizedAffinity>  (342) 
-8.43784142

$$$$

     RDKit          3D

 66 65  0  0  1  0  0  0  0  0999 V2000
   -9.4100  -16.9390   36.0430 C   0  0  0  0  0  0  0  0  0  0  0  0
   -8.6970  -16.6880   34.7470 C   0  0  0  0  0  0  0  0  0  0  0  0
   -9.4150  -16.0150   33.6140 C   0  0  0  0  0  0  0  0  0  0  0  0
  -10.8450  -15.5940   33.7780 C   0  0  0  0  0  0  0  0  0  0  0  0
  -11.5620  -14.9210   32.6450 N   0  0  0  0  0  0  0  0  0  0  0  0
  -12.9930  -14.5000   32.8080 C   0  0  0  0  0  0  0  0  0  0  0  0
  -13.7050  -14.7510   34.1040 N   0  0  0  0  0  0  0  0  0  0  0  0
  -12.9880  -15.4240   35.2360 C   0  0  0  0  0  0  0  0  0  0  0  0
  -13.7010  -15.6750   36.5320 N   0  0  0  0  0  0  0  0  0  0  0  0
  -11.5580  -15.8450   35.0730 C   0  0  0  0  0  0  0  0  0  0  0  0
  -10.8400  -16.5180   36.2060 C   0  0  0  0  0  0  0  0  0  0  0  0
   -7.7130  -16.9780   34.6350 H   0  0  0  0  0  0  0  0  0  0  0  0
   -8.9240  -15.8420   32.7230 H   0  0  0  0  0  0  0  0  0  0  0  0
  -13.4860  -14.0370   32.0290 H   0  0  0  0  0  0  0  0  0  0  0  0
  -13.2300  -16.1160   37.2760 H   0  0  0  0  0  0  0  0  0  0  0  0
  -11.3310  -16.6910   37.0980 H   0  0  0  0  0  0  0  0  0  0  0  0
  -15.1310  -15.2530   36.6950 C   0  0  0  0  0  0  0  0  0  0  0  0
  -15.6480  -14.8620   38.0480 C   0  0  0  0  0  0  0  0  0  0  0  0
  -17.0780  -14.4400   38.2110 C   0  0  0  0  0  0  0  0  0  0  0  0
  -17.9920  -14.4100   37.0220 C   0  0  0  0  0  0  0  0  0  0  0  0
  -17.4750  -14.8020   35.6690 C   0  0  0  0  0  0  0  0  0  0  0  0
  -16.0440  -15.2230   35.5060 C   0  0  0  0  0  0  0  0  0  0  0  0
  -15.0190  -14.8820   38.8660 H   0  0  0  0  0  0  0  0  0  0  0  0
  -17.4340  -14.1710   39.1420 H   0  0  0  0  0  0  0  0  0  0  0  0
  -18.1030  -14.7810   34.8500 H   0  0  0  0  0  0  0  0  0  0  0  0
  -15.6890  -15.4930   34.5750 H   0  0  0  0  0  0  0  0  0  0  0  0
  -19.4220  -13.9890   37.1850 O   0  0  0  0  0  0  0  0  0  0  0  0
  -19.7900  -12.5370   37.1030 C   0  0  0  0  0  0  0  0  0  0  0  0
  -20.1910  -12.0370   37.9610 H   0  0  0  0  0  0  0  0  0  0  0  0
  -20.0520  -11.5010   37.0450 H   0  0  0  0  0  0  0  0  0  0  0  0
  -19.5960  -11.7850   35.8200 C   0  0  0  0  0  0  0  0  0  0  0  0
  -19.2080  -10.3370   35.8500 C   0  0  0  0  0  0  0  0  0  0  0  0
  -19.0140   -9.5850   34.5660 C   0  0  0  0  0  0  0  0  0  0  0  0
  -19.2090  -10.2820   33.2530 C   0  0  0  0  0  0  0  0  0  0  0  0
  -19.5980  -11.7300   33.2220 C   0  0  0  0  0  0  0  0  0  0  0  0
  -19.7910  -12.4820   34.5060 C   0  0  0  0  0  0  0  0  0  0  0  0
  -19.0730   -9.8570   36.7540 H   0  0  0  0  0  0  0  0  0  0  0  0
  -18.7470   -8.5880   34.5880 H   0  0  0  0  0  0  0  0  0  0  0  0
  -19.0760   -9.7640   32.3690 H   0  0  0  0  0  0  0  0  0  0  0  0
  -19.7320  -12.2100   32.3180 H   0  0  0  0  0  0  0  0  0  0  0  0
  -20.0590  -13.4790   34.4850 H   0  0  0  0  0  0  0  0  0  0  0  0
   -8.8430  -17.2870   38.6310 C   0  0  0  0  0  1  0  0  0  0  0  0
   -7.9420  -18.2020   39.4070 C   0  0  0  0  0  3  0  0  0  0  0  0
   -7.2340  -19.0930   38.4290 C   0  0  0  0  0  0  0  0  0  0  0  0
   -7.6980  -18.7280   37.0500 O   0  0  0  0  0  0  0  0  0  0  0  0
   -8.6920  -17.6120   37.1750 C   0  0  0  0  0  3  0  0  0  0  0  0
   -7.8290  -18.2160   40.4320 H   0  0  0  0  0  0  0  0  0  0  0  0
   -6.5490  -19.8270   38.6650 H   0  0  0  0  0  0  0  0  0  0  0  0
   -9.7380  -16.2320   39.2110 C   0  0  0  0  0  2  0  0  0  0  0  0
   -9.4760  -15.1980   39.1190 H   0  0  0  0  0  0  0  0  0  0  0  0
   -8.8380  -15.9510   38.7060 H   0  0  0  0  0  0  0  0  0  0  0  0
  -11.0000  -16.6250   39.9200 N   0  0  0  0  0  1  0  0  0  0  0  0
  -11.1580  -17.6000   40.1780 H   0  0  0  0  0  0  0  0  0  0  0  0
  -12.0300  -15.5860   40.2500 C   0  0  0  0  0  2  0  0  0  0  0  0
  -12.1480  -14.7300   39.6190 H   0  0  0  0  0  0  0  0  0  0  0  0
  -11.4130  -15.4720   39.3830 H   0  0  0  0  0  0  0  0  0  0  0  0
  -12.8950  -15.7450   41.4650 C   0  0  0  0  0  3  0  0  0  0  0  0
  -12.4500  -15.7740   42.4370 H   0  0  0  0  0  0  0  0  0  0  0  0
  -11.8340  -15.6610   41.5710 H   0  0  0  0  0  0  0  0  0  0  0  0
  -14.3830  -15.8640   41.3170 S   0  0  1  0  0  0  0  0  0  0  0  0
  -14.2100  -17.1990   40.6540 O   0  0  0  0  0  0  0  0  0  0  0  0
  -14.5560  -14.5300   41.9790 O   0  0  0  0  0  0  0  0  0  0  0  0
  -15.8710  -15.9830   41.1690 C   0  0  0  0  0  0  0  0  0  0  0  0
  -16.2950  -16.8500   40.7070 H   0  0  0  0  0  0  0  0  0  0  0  0
  -16.5090  -15.2010   41.5250 H   0  0  0  0  0  0  0  0  0  0  0  0
  -16.9320  -16.0690   41.0630 H   0  0  0  0  0  0  0  0  0  0  0  0
  1 11  1  0
  1 46  1  0
  2  1  2  0
  3  4  2  0
  3  2  1  0
  4 10  1  0
  5  6  2  0
  5  4  1  0
  6  7  1  0
  7  8  2  0
  8  9  1  0
  9 17  1  0
  9 15  1  0
 10  8  1  0
 10 11  2  0
 11 16  1  0
 12  2  1  0
 13  3  1  0
 14  6  1  0
 17 18  1  0
 18 19  2  0
 18 23  1  0
 19 24  1  0
 20 27  1  0
 20 19  1  0
 21 20  2  0
 22 21  1  0
 22 17  2  0
 25 21  1  0
 26 22  1  0
 28 27  1  0
 28 29  1  0
 30 28  1  0
 31 32  1  0
 31 28  1  0
 32 37  1  0
 33 38  1  0
 33 32  2  0
 34 33  1  0
 35 34  2  0
 35 36  1  0
 36 31  2  0
 39 34  1  0
 40 35  1  0
 41 36  1  0
 43 47  1  0
 44 48  1  0
 44 43  2  0
 45 46  1  0
 45 44  1  0
 46 42  1  0
 50 49  1  0
 51 49  1  0
 52 53  1  0
 55 54  1  0
 56 54  1  0
 57 59  1  0
 57 58  1  0
 60 57  1  0
 60 62  2  0
 61 60  2  0
 63 60  1  0
 63 65  1  0
 64 63  1  0
 66 63  1  0
M  END
>  <minimizedAffinity>  (343) 
-8.89533043

$$$$

     RDKit          3D

 66 66  0  0  1  0  0  0  0  0999 V2000
  -13.6610  -16.4950   38.8280 C   0  0  0  0  0  0  0  0  0  0  0  0
  -14.2640  -16.8570   40.1530 C   0  0  0  0  0  0  0  0  0  0  0  0
  -15.7440  -16.7270   40.3640 C   0  0  0  0  0  0  0  0  0  0  0  0
  -16.6200  -16.2360   39.2490 C   0  0  0  0  0  0  0  0  0  0  0  0
  -18.0990  -16.1060   39.4600 N   0  0  0  0  0  0  0  0  0  0  0  0
  -18.9750  -15.6150   38.3450 C   0  0  0  0  0  0  0  0  0  0  0  0
  -18.3710  -15.2540   37.0200 N   0  0  0  0  0  0  0  0  0  0  0  0
  -16.8920  -15.3840   36.8100 C   0  0  0  0  0  0  0  0  0  0  0  0
  -16.2880  -15.0230   35.4850 N   0  0  0  0  0  0  0  0  0  0  0  0
  -16.0160  -15.8750   37.9240 C   0  0  0  0  0  0  0  0  0  0  0  0
  -14.5370  -16.0050   37.7140 C   0  0  0  0  0  0  0  0  0  0  0  0
  -13.6620  -17.1940   40.9200 H   0  0  0  0  0  0  0  0  0  0  0  0
  -16.1590  -16.9750   41.2750 H   0  0  0  0  0  0  0  0  0  0  0  0
  -19.9930  -15.5260   38.4900 H   0  0  0  0  0  0  0  0  0  0  0  0
  -15.3170  -15.1080   35.3460 H   0  0  0  0  0  0  0  0  0  0  0  0
  -14.1210  -15.7560   36.8020 H   0  0  0  0  0  0  0  0  0  0  0  0
  -17.1640  -14.5320   34.3710 C   0  0  0  0  0  0  0  0  0  0  0  0
  -18.5020  -15.1670   34.1330 C   0  0  0  0  0  0  0  0  0  0  0  0
  -19.3780  -14.6760   33.0180 C   0  0  0  0  0  0  0  0  0  0  0  0
  -18.9160  -13.5500   32.1420 C   0  0  0  0  0  0  0  0  0  0  0  0
  -17.5780  -12.9150   32.3800 C   0  0  0  0  0  0  0  0  0  0  0  0
  -16.7020  -13.4060   33.4940 C   0  0  0  0  0  0  0  0  0  0  0  0
  -18.8200  -15.9420   34.7360 H   0  0  0  0  0  0  0  0  0  0  0  0
  -20.2980  -15.1140   32.8550 H   0  0  0  0  0  0  0  0  0  0  0  0
  -17.2600  -12.1400   31.7770 H   0  0  0  0  0  0  0  0  0  0  0  0
  -15.7820  -12.9680   33.6580 H   0  0  0  0  0  0  0  0  0  0  0  0
  -19.7920  -13.0590   31.0270 O   0  0  0  0  0  0  0  0  0  0  0  0
  -19.3710  -13.2550   29.6010 C   0  0  0  0  0  0  0  0  0  0  0  0
  -19.4450  -14.2220   29.1490 H   0  0  0  0  0  0  0  0  0  0  0  0
  -19.0710  -13.3940   28.5830 H   0  0  0  0  0  0  0  0  0  0  0  0
  -18.8460  -12.0940   28.8080 C   0  0  0  0  0  0  0  0  0  0  0  0
  -17.3900  -11.7380   28.8740 C   0  0  0  0  0  0  0  0  0  0  0  0
  -16.8650  -10.5780   28.0820 C   0  0  0  0  0  0  0  0  0  0  0  0
  -17.7960   -9.7740   27.2230 C   0  0  0  0  0  0  0  0  0  0  0  0
  -19.2520  -10.1300   27.1570 C   0  0  0  0  0  0  0  0  0  0  0  0
  -19.7770  -11.2900   27.9500 C   0  0  0  0  0  0  0  0  0  0  0  0
  -16.7500  -12.2920   29.4650 H   0  0  0  0  0  0  0  0  0  0  0  0
  -15.8640  -10.3330   28.1270 H   0  0  0  0  0  0  0  0  0  0  0  0
  -17.4350   -8.9760   26.6780 H   0  0  0  0  0  0  0  0  0  0  0  0
  -19.8920   -9.5770   26.5670 H   0  0  0  0  0  0  0  0  0  0  0  0
  -20.7780  -11.5350   27.9050 H   0  0  0  0  0  0  0  0  0  0  0  0
  -10.0260  -17.1090   37.6110 C   0  0  0  0  0  1  0  0  0  0  0  0
   -9.7820  -16.5400   38.9770 C   0  0  0  0  0  0  0  0  0  0  0  0
  -11.1140  -16.2410   39.6000 C   0  0  0  0  0  0  0  0  0  0  0  0
  -12.1810  -16.6250   38.6180 C   0  0  0  0  0  3  0  0  0  0  0  0
  -11.5090  -17.1610   37.3890 O   0  0  0  0  0  1  0  0  0  0  0  0
   -8.8600  -16.3830   39.4120 H   0  0  0  0  0  0  0  0  0  0  0  0
  -11.2690  -15.8420   40.5380 H   0  0  0  0  0  0  0  0  0  0  0  0
   -8.9730  -17.5480   36.6370 C   0  0  0  0  0  3  0  0  0  0  0  0
   -8.2940  -18.3310   36.9010 H   0  0  0  0  0  0  0  0  0  0  0  0
   -9.0450  -18.0180   37.5950 H   0  0  0  0  0  0  0  0  0  0  0  0
   -8.8720  -16.8890   35.2930 N   0  0  0  0  0  2  0  0  0  0  0  0
   -7.9560  -16.7000   34.8850 H   0  0  0  0  0  0  0  0  0  0  0  0
  -10.1190  -16.5080   34.5500 C   0  0  0  0  0  2  0  0  0  0  0  0
  -10.6280  -17.2340   33.9520 H   0  0  0  0  0  0  0  0  0  0  0  0
   -9.7390  -17.5060   34.4810 H   0  0  0  0  0  0  0  0  0  0  0  0
  -10.6510  -15.1090   34.6470 C   0  0  0  0  0  3  0  0  0  0  0  0
  -10.1540  -14.3890   35.2620 H   0  0  0  0  0  0  0  0  0  0  0  0
   -9.7740  -15.3870   35.1940 H   0  0  0  0  0  0  0  0  0  0  0  0
  -11.8800  -14.7200   33.8800 S   0  0  1  0  0  0  0  0  0  0  0  0
  -11.1340  -14.9000   32.5920 O   0  0  0  0  0  0  0  0  0  0  0  0
  -12.6260  -14.5400   35.1690 O   0  0  0  0  0  0  0  0  0  0  0  0
  -13.1090  -14.3310   33.1150 C   0  0  0  0  0  0  0  0  0  0  0  0
  -14.0090  -14.0810   33.6370 H   0  0  0  0  0  0  0  0  0  0  0  0
  -13.0870  -14.3040   32.0460 H   0  0  0  0  0  0  0  0  0  0  0  0
  -13.9870  -14.0540   32.5680 H   0  0  0  0  0  0  0  0  0  0  0  0
  1  2  1  0
  2  3  2  0
  2 12  1  0
  3 13  1  0
  4  5  1  0
  4  3  1  0
  6 14  1  0
  6  5  2  0
  7  6  1  0
  8  7  2  0
  8 10  1  0
  9  8  1  0
 10  4  2  0
 11 10  1  0
 11  1  2  0
 15  9  1  0
 16 11  1  0
 17  9  1  0
 18 17  1  0
 18 23  1  0
 19 18  2  0
 20 21  2  0
 20 19  1  0
 21 22  1  0
 22 26  1  0
 22 17  2  0
 24 19  1  0
 25 21  1  0
 27 20  1  0
 28 27  1  0
 29 28  1  0
 30 28  1  0
 31 32  1  0
 31 28  1  0
 32 37  1  0
 33 38  1  0
 33 32  2  0
 34 33  1  0
 35 34  2  0
 35 36  1  0
 36 31  2  0
 39 34  1  0
 40 35  1  0
 41 36  1  0
 42 43  1  0
 43 47  1  0
 43 44  2  0
 44 48  1  0
 45 46  1  0
 45  1  1  0
 45 44  1  0
 49 50  1  0
 49 51  1  0
 52 49  1  0
 53 52  1  0
 55 54  1  0
 56 54  1  0
 57 59  1  0
 57 58  1  0
 60 57  1  0
 60 62  2  0
 61 60  2  0
 63 64  1  0
 63 60  1  0
 65 63  1  0
 66 63  1  0
M  END
>  <minimizedAffinity>  (344) 
-10.4337263

$$$$

     RDKit          3D

 37 39  0  0  0  0  0  0  0  0999 V2000
  -12.6990  -16.0860   36.0070 C   0  0  0  0  0  0  0  0  0  0  0  0
  -13.1770  -14.6990   35.6920 C   0  0  0  0  0  0  0  0  0  0  0  0
  -13.2680  -16.9030   35.7330 H   0  0  0  0  0  0  0  0  0  0  0  0
  -12.6080  -13.8830   35.9660 H   0  0  0  0  0  0  0  0  0  0  0  0
  -14.4820  -14.5000   34.9810 C   0  0  0  0  0  0  0  0  0  0  0  0
  -15.7380  -15.1060   35.5340 C   0  0  0  0  0  0  0  0  0  0  0  0
  -17.0440  -14.9060   34.8220 N   0  0  0  0  0  0  0  0  0  0  0  0
  -17.0930  -14.1000   33.5570 C   0  0  0  0  0  0  0  0  0  0  0  0
  -15.8370  -13.4950   33.0050 C   0  0  0  0  0  0  0  0  0  0  0  0
  -14.5320  -13.6940   33.7160 C   0  0  0  0  0  0  0  0  0  0  0  0
  -15.7040  -15.6600   36.4040 H   0  0  0  0  0  0  0  0  0  0  0  0
  -17.9910  -13.9630   33.0680 H   0  0  0  0  0  0  0  0  0  0  0  0
  -13.6680  -13.2780   33.3360 H   0  0  0  0  0  0  0  0  0  0  0  0
  -15.8860  -12.6890   31.7400 C   0  0  0  0  0  0  0  0  0  0  0  0
  -15.7550  -11.1980   31.6380 N   0  0  0  0  0  0  0  0  0  0  0  0
  -15.8630  -10.8210   30.1910 N   0  0  0  0  0  2  0  0  0  0  0  0
  -16.0600  -12.0790   29.3980 N   0  0  0  0  0  0  0  0  0  0  0  0
  -16.0750  -13.2330   30.3540 N   0  0  0  0  0  2  0  0  0  0  0  0
  -16.1630  -12.1360   28.4200 H   0  0  0  0  0  0  0  0  0  0  0  0
  -10.1050  -16.2230   35.9530 C   0  0  0  0  0  0  0  0  0  0  0  0
   -8.8000  -16.4230   36.6650 C   0  0  0  0  0  0  0  0  0  0  0  0
   -8.7830  -16.6850   38.1420 C   0  0  0  0  0  0  0  0  0  0  0  0
  -10.0720  -16.7480   38.9070 C   0  0  0  0  0  0  0  0  0  0  0  0
  -11.3770  -16.5480   38.1950 C   0  0  0  0  0  0  0  0  0  0  0  0
  -11.3930  -16.2860   36.7180 C   0  0  0  0  0  0  0  0  0  0  0  0
   -7.9130  -16.3800   36.1380 H   0  0  0  0  0  0  0  0  0  0  0  0
  -10.0600  -16.9280   39.9230 H   0  0  0  0  0  0  0  0  0  0  0  0
  -10.1210  -15.9610   34.4760 C   0  0  0  0  0  0  0  0  0  0  0  0
   -9.2020  -15.9160   33.9300 H   0  0  0  0  0  0  0  0  0  0  0  0
  -11.0530  -15.8180   33.9690 H   0  0  0  0  0  0  0  0  0  0  0  0
  -10.1330  -15.7740   33.4230 H   0  0  0  0  0  0  0  0  0  0  0  0
  -12.6660  -16.6100   38.9600 C   0  0  0  0  0  0  0  0  0  0  0  0
  -13.5970  -16.4680   38.4530 H   0  0  0  0  0  0  0  0  0  0  0  0
  -12.6540  -16.7980   40.0140 H   0  0  0  0  0  0  0  0  0  0  0  0
  -13.5850  -16.6550   39.5060 H   0  0  0  0  0  0  0  0  0  0  0  0
   -7.4780  -16.8850   38.8530 O   0  0  0  0  0  0  0  0  0  0  0  0
   -7.4670  -17.0480   39.7760 H   0  0  0  0  0  0  0  0  0  0  0  0
  1 25  1  0
  2  4  1  0
  2  1  2  0
  3  1  1  0
  5  6  1  0
  5  2  1  0
  6 11  1  0
  7  6  2  0
  8  7  1  0
  9  8  2  0
  9 10  1  0
 10  5  2  0
 12  8  1  0
 13 10  1  0
 14  9  1  0
 15 14  2  0
 16 15  1  0
 17 16  1  0
 17 18  1  0
 18 14  1  0
 19 17  1  0
 20 21  2  0
 20 25  1  0
 21 22  1  0
 22 36  1  0
 22 23  2  0
 23 27  1  0
 24 23  1  0
 24 32  1  0
 25 24  2  0
 26 21  1  0
 28 20  1  0
 29 28  1  0
 30 28  1  0
 31 28  1  0
 32 35  1  0
 32 34  1  0
 33 32  1  0
 36 37  1  0
M  END
>  <minimizedAffinity>  (345) 
-8.38646412

$$$$

     RDKit          3D

 44 47  0  0  0  0  0  0  0  0999 V2000
  -15.5190  -16.3810   37.7550 C   0  0  0  0  0  0  0  0  0  0  0  0
  -16.1410  -16.7010   36.4290 C   0  0  0  0  0  0  0  0  0  0  0  0
  -15.7740  -15.9010   35.2150 C   0  0  0  0  0  0  0  0  0  0  0  0
  -14.7840  -14.7800   35.3270 C   0  0  0  0  0  0  0  0  0  0  0  0
  -14.1600  -14.4590   36.6530 C   0  0  0  0  0  0  0  0  0  0  0  0
  -14.5280  -15.2600   37.8670 C   0  0  0  0  0  0  0  0  0  0  0  0
  -16.8230  -17.4730   36.3520 H   0  0  0  0  0  0  0  0  0  0  0  0
  -16.2030  -16.1220   34.3020 H   0  0  0  0  0  0  0  0  0  0  0  0
  -13.4790  -13.6890   36.7300 H   0  0  0  0  0  0  0  0  0  0  0  0
  -14.0990  -15.0390   38.7800 H   0  0  0  0  0  0  0  0  0  0  0  0
  -18.5940  -15.5590   38.1600 N   0  0  0  0  0  0  0  0  0  0  0  0
  -18.5140  -16.4910   39.3320 C   0  0  0  0  0  0  0  0  0  0  0  0
  -19.7180  -16.7140   40.1980 N   0  0  0  0  0  0  0  0  0  0  0  0
  -19.6380  -17.6470   41.3700 C   0  0  0  0  0  0  0  0  0  0  0  0
  -18.3530  -18.3570   41.6760 N   0  0  0  0  0  0  0  0  0  0  0  0
  -17.1480  -18.1340   40.8110 C   0  0  0  0  0  0  0  0  0  0  0  0
  -15.7550  -18.6910   40.8660 O   0  0  0  0  0  0  0  0  0  0  0  0
  -14.9760  -18.1010   39.7280 C   0  0  0  0  0  0  0  0  0  0  0  0
  -15.8860  -17.1810   38.9690 C   0  0  0  0  0  0  0  0  0  0  0  0
  -17.2280  -17.2020   39.6390 C   0  0  0  0  0  0  0  0  0  0  0  0
  -19.4380  -15.0930   37.9590 H   0  0  0  0  0  0  0  0  0  0  0  0
  -17.8030  -15.4130   37.5920 H   0  0  0  0  0  0  0  0  0  0  0  0
  -20.4670  -17.8000   41.9650 H   0  0  0  0  0  0  0  0  0  0  0  0
  -13.9870  -18.2950   39.5060 H   0  0  0  0  0  0  0  0  0  0  0  0
  -14.4160  -13.9800   34.1120 N   0  0  0  0  0  0  0  0  0  0  0  0
  -15.4910  -13.3800   33.2550 C   0  0  0  0  0  0  0  0  0  0  0  0
  -16.9340  -13.5820   33.6120 O   0  0  0  0  0  0  0  0  0  0  0  0
  -15.1240  -12.5800   32.0420 N   0  0  0  0  0  0  0  0  0  0  0  0
  -13.4690  -13.8470   33.8780 H   0  0  0  0  0  0  0  0  0  0  0  0
  -14.1770  -12.4480   31.8070 H   0  0  0  0  0  0  0  0  0  0  0  0
  -16.1990  -11.9800   31.1840 C   0  0  0  0  0  0  0  0  0  0  0  0
  -16.8840  -12.8180   30.1460 C   0  0  0  0  0  0  0  0  0  0  0  0
  -17.9600  -12.2190   29.2890 C   0  0  0  0  0  0  0  0  0  0  0  0
  -18.3500  -10.7820   29.4700 C   0  0  0  0  0  0  0  0  0  0  0  0
  -17.6650   -9.9450   30.5100 C   0  0  0  0  0  0  0  0  0  0  0  0
  -16.5900  -10.5440   31.3660 C   0  0  0  0  0  0  0  0  0  0  0  0
  -15.9040   -9.7060   32.4060 F   0  0  0  0  0  0  0  0  0  0  0  0
  -16.6160  -13.8060   30.0200 H   0  0  0  0  0  0  0  0  0  0  0  0
  -19.0900  -10.3700   28.8810 H   0  0  0  0  0  0  0  0  0  0  0  0
  -17.9340   -8.9560   30.6350 H   0  0  0  0  0  0  0  0  0  0  0  0
  -18.6450  -13.0560   28.2500 C   0  0  0  0  0  0  0  0  0  0  0  0
  -19.3300  -13.8940   27.2110 F   0  0  0  0  0  0  0  0  0  0  0  0
  -17.9760  -12.2610   27.1680 F   0  0  0  0  0  0  0  0  0  0  0  0
  -19.3130  -13.8510   29.3320 F   0  0  0  0  0  0  0  0  0  0  0  0
  1  6  1  0
  1 19  1  0
  2  1  2  0
  3  4  2  0
  3  2  1  0
  4  5  1  0
  5  9  1  0
  5  6  2  0
  6 10  1  0
  7  2  1  0
  8  3  1  0
 11 12  1  0
 12 20  2  0
 12 13  1  0
 13 14  2  0
 14 15  1  0
 14 23  1  0
 16 17  1  0
 16 15  2  0
 18 17  1  0
 19 20  1  0
 19 18  2  0
 20 16  1  0
 21 11  1  0
 22 11  1  0
 24 18  1  0
 25  4  1  0
 26 27  2  0
 26 25  1  0
 28 26  1  0
 29 25  1  0
 30 28  1  0
 31 36  1  0
 31 28  1  0
 32 31  2  0
 33 34  2  0
 33 32  1  0
 34 35  1  0
 35 40  1  0
 35 36  2  0
 36 37  1  0
 38 32  1  0
 39 34  1  0
 41 33  1  0
 41 44  1  0
 42 41  1  0
 43 41  1  0
M  END
>  <minimizedAffinity>  (346) 
-6.93302202

$$$$

     RDKit          3D

 44 46  0  0  0  0  0  0  0  0999 V2000
  -17.0610  -15.8820   36.6180 C   0  0  0  0  0  0  0  0  0  0  0  0
  -18.5510  -15.7480   36.7330 C   0  0  0  0  0  0  0  0  0  0  0  0
  -19.2950  -14.8330   35.8070 C   0  0  0  0  0  0  0  0  0  0  0  0
  -18.5500  -14.0500   34.7670 C   0  0  0  0  0  0  0  0  0  0  0  0
  -17.0600  -14.1840   34.6520 C   0  0  0  0  0  0  0  0  0  0  0  0
  -16.3160  -15.0990   35.5780 C   0  0  0  0  0  0  0  0  0  0  0  0
  -14.8580  -15.0260   35.2300 C   0  0  0  0  0  0  0  0  0  0  0  0
  -13.7520  -15.7810   35.9040 N   0  0  0  0  0  0  0  0  0  0  0  0
  -14.7030  -14.0650   34.0890 C   0  0  0  0  0  0  0  0  0  0  0  0
  -13.4120  -13.6900   33.4220 O   0  0  0  0  0  0  0  0  0  0  0  0
  -16.0630  -13.5440   33.7310 N   0  0  0  0  0  0  0  0  0  0  0  0
  -19.0630  -16.2870   37.4490 H   0  0  0  0  0  0  0  0  0  0  0  0
  -20.3200  -14.7410   35.8860 H   0  0  0  0  0  0  0  0  0  0  0  0
  -19.0620  -13.4200   34.1300 H   0  0  0  0  0  0  0  0  0  0  0  0
  -16.2660  -12.8960   33.0180 H   0  0  0  0  0  0  0  0  0  0  0  0
  -16.1340  -16.4220   38.9850 C   0  0  0  0  0  0  0  0  0  0  0  0
  -16.3160  -16.7980   37.5440 C   0  0  0  0  0  0  0  0  0  0  0  0
  -15.9300  -17.6870   37.1900 H   0  0  0  0  0  0  0  0  0  0  0  0
  -15.3900  -17.3370   39.9100 C   0  0  0  0  0  0  0  0  0  0  0  0
  -15.2600  -17.0690   40.9380 H   0  0  0  0  0  0  0  0  0  0  0  0
  -14.9890  -18.2590   39.5430 H   0  0  0  0  0  0  0  0  0  0  0  0
  -14.8580  -17.9910   40.5710 H   0  0  0  0  0  0  0  0  0  0  0  0
  -16.6960  -15.1300   39.4990 C   0  0  0  0  0  0  0  0  0  0  0  0
  -17.2270  -14.4760   38.8390 H   0  0  0  0  0  0  0  0  0  0  0  0
  -16.5660  -14.8610   40.5270 H   0  0  0  0  0  0  0  0  0  0  0  0
  -17.0970  -14.2080   39.8670 H   0  0  0  0  0  0  0  0  0  0  0  0
  -12.3350  -15.6050   35.4440 N   0  0  0  0  0  0  0  0  0  0  0  0
  -12.1450  -15.1180   34.6090 H   0  0  0  0  0  0  0  0  0  0  0  0
  -11.2070  -16.1700   36.2560 C   0  0  0  0  0  0  0  0  0  0  0  0
  -11.4420  -16.5870   37.6770 C   0  0  0  0  0  0  0  0  0  0  0  0
  -10.3140  -17.1520   38.4890 C   0  0  0  0  0  0  0  0  0  0  0  0
   -8.9520  -17.3010   37.8790 C   0  0  0  0  0  0  0  0  0  0  0  0
   -8.7170  -16.8840   36.4570 C   0  0  0  0  0  0  0  0  0  0  0  0
   -9.8450  -16.3190   35.6450 C   0  0  0  0  0  0  0  0  0  0  0  0
  -12.3790  -16.4850   38.0970 H   0  0  0  0  0  0  0  0  0  0  0  0
  -10.4750  -17.4390   39.4670 H   0  0  0  0  0  0  0  0  0  0  0  0
   -7.7800  -16.9860   36.0380 H   0  0  0  0  0  0  0  0  0  0  0  0
   -9.6840  -16.0320   34.6670 H   0  0  0  0  0  0  0  0  0  0  0  0
   -7.8240  -17.8650   38.6900 S   0  0  2  0  0  0  0  0  0  0  0  0
   -8.5970  -19.1370   38.8790 O   0  0  0  0  0  0  0  0  0  0  0  0
   -7.0500  -16.5950   38.5020 O   0  0  0  0  0  0  0  0  0  0  0  0
   -6.6960  -18.4320   39.5020 N   0  0  0  0  0  0  0  0  0  0  0  0
   -6.7680  -19.3730   39.8890 H   0  0  0  0  0  0  0  0  0  0  0  0
   -5.8570  -17.8750   39.6660 H   0  0  0  0  0  0  0  0  0  0  0  0
  1  2  1  0
  1 17  1  0
  2 12  1  0
  3 13  1  0
  3  2  2  0
  4  3  1  0
  5  4  2  0
  5  6  1  0
  6  1  2  0
  7  6  1  0
  7  8  2  0
  9  7  1  0
 10  9  2  0
 11  9  1  0
 11  5  1  0
 14  4  1  0
 15 11  1  0
 16 23  1  0
 16 19  1  0
 17 16  2  0
 18 17  1  0
 19 22  1  0
 19 20  1  0
 21 19  1  0
 23 26  1  0
 23 25  1  0
 24 23  1  0
 27  8  1  0
 27 29  1  0
 28 27  1  0
 29 30  1  0
 30 35  1  0
 30 31  2  0
 31 36  1  0
 32 31  1  0
 32 39  1  0
 33 32  2  0
 34 29  2  0
 34 33  1  0
 37 33  1  0
 38 34  1  0
 39 40  2  0
 39 42  1  0
 41 39  2  0
 42 44  1  0
 42 43  1  0
M  END
>  <minimizedAffinity>  (347) 
-8.59746933

$$$$

     RDKit          3D

 68 61  0  0  0  0  0  0  0  0999 V2000
  -15.1990  -12.8030   32.1310 C   0  0  0  0  0  0  0  0  0  0  0  0
  -14.9080  -11.6220   31.2540 C   0  0  0  0  0  0  0  0  0  0  0  0
  -16.2020  -11.1710   30.6420 C   0  0  0  0  0  0  0  0  0  0  0  0
  -16.5280  -10.0540   29.6940 N   0  0  0  0  0  0  0  0  0  0  0  0
  -17.9440   -9.8410   29.2460 C   0  0  0  0  0  0  0  0  0  0  0  0
  -19.0330  -10.7440   29.7450 N   0  0  0  0  0  0  0  0  0  0  0  0
  -18.7060  -11.8600   30.6930 C   0  0  0  0  0  0  0  0  0  0  0  0
  -17.2910  -12.0740   31.1410 C   0  0  0  0  0  0  0  0  0  0  0  0
  -16.6710  -13.0830   32.0620 S   0  0  0  0  0  0  0  0  0  0  0  0
  -13.9820  -11.1940   31.0990 H   0  0  0  0  0  0  0  0  0  0  0  0
  -18.1690   -9.0730   28.5950 H   0  0  0  0  0  0  0  0  0  0  0  0
  -13.1870  -14.3390   33.7420 C   0  0  0  0  0 15  0  0  0  0  0  0
  -14.1930  -13.5710   32.9360 C   0  0  0  0  0  1  0  0  0  0  0  0
  -11.1430  -16.3900   36.3280 C   0  0  0  0  0  2  0  0  0  0  0  0
  -10.1220  -16.1860   35.2480 C   0  0  0  0  0  2  0  0  0  0  0  0
  -10.7640  -15.3930   34.1470 N   0  0  0  0  0  1  0  0  0  0  0  0
  -12.1810  -15.1060   34.5480 C   0  0  0  0  0  2  0  0  0  0  0  0
  -12.4160  -15.7220   35.8960 C   0  0  0  0  0  3  0  0  0  0  0  0
  -10.1730  -16.8110   36.4900 H   0  0  0  0  0  0  0  0  0  0  0  0
   -9.1140  -16.5440   35.2590 H   0  0  0  0  0  0  0  0  0  0  0  0
   -9.5160  -15.9570   34.3960 H   0  0  0  0  0  0  0  0  0  0  0  0
  -10.3150  -15.1000   33.2790 H   0  0  0  0  0  0  0  0  0  0  0  0
  -11.8580  -14.7290   33.6010 H   0  0  0  0  0  0  0  0  0  0  0  0
  -13.3290  -15.6910   36.4500 H   0  0  0  0  0  0  0  0  0  0  0  0
  -12.4220  -16.2120   36.8470 H   0  0  0  0  0  0  0  0  0  0  0  0
  -10.9300  -17.1300   37.6150 O   0  0  0  0  0  0  0  0  0  0  0  0
   -9.2230  -15.9950   39.2110 O   0  0  0  0  0  1  0  0  0  0  0  0
  -10.6350  -16.3730   38.8750 C   0  0  0  0  0  2  0  0  0  0  0  0
  -11.7530  -15.9920   39.8000 N   0  0  0  0  0 15  0  0  0  0  0  0
  -11.4580  -15.2340   41.0610 C   0  0  0  0  0  2  0  0  0  0  0  0
  -12.5760  -14.8530   41.9860 C   0  0  0  0  0  2  0  0  0  0  0  0
  -13.9890  -15.2300   41.6500 O   0  0  0  0  0  1  0  0  0  0  0  0
  -14.2840  -15.9880   40.3900 C   0  0  0  0  0  3  0  0  0  0  0  0
  -13.1650  -16.3690   39.4640 C   0  0  0  0  0  2  0  0  0  0  0  0
  -10.4510  -14.9650   41.3000 H   0  0  0  0  0  0  0  0  0  0  0  0
  -11.2480  -14.6930   41.9600 H   0  0  0  0  0  0  0  0  0  0  0  0
  -12.3660  -14.3130   42.8850 H   0  0  0  0  0  0  0  0  0  0  0  0
  -13.3740  -14.5820   42.6450 H   0  0  0  0  0  0  0  0  0  0  0  0
  -15.2910  -16.2570   40.1500 H   0  0  0  0  0  0  0  0  0  0  0  0
  -14.4930  -16.5290   39.4900 H   0  0  0  0  0  0  0  0  0  0  0  0
  -13.3750  -16.9090   38.5660 H   0  0  0  0  0  0  0  0  0  0  0  0
  -12.3680  -16.6400   38.8040 H   0  0  0  0  0  0  0  0  0  0  0  0
  -19.7950  -12.7630   31.1920 N   0  0  0  0  0  0  0  0  0  0  0  0
  -20.5100  -13.0550   30.5810 H   0  0  0  0  0  0  0  0  0  0  0  0
  -19.7940  -13.2210   32.6200 C   0  0  0  0  0  0  0  0  0  0  0  0
  -19.7950  -14.6870   32.9380 C   0  0  0  0  0  0  0  0  0  0  0  0
  -19.7940  -15.1450   34.3660 C   0  0  0  0  0  0  0  0  0  0  0  0
  -19.7920  -14.1370   35.4770 C   0  0  0  0  0  0  0  0  0  0  0  0
  -19.7900  -12.6710   35.1590 C   0  0  0  0  0  0  0  0  0  0  0  0
  -19.7920  -12.2130   33.7310 C   0  0  0  0  0  0  0  0  0  0  0  0
  -19.7960  -15.3810   32.1740 H   0  0  0  0  0  0  0  0  0  0  0  0
  -19.7950  -16.1540   34.5850 H   0  0  0  0  0  0  0  0  0  0  0  0
  -19.7890  -11.9770   35.9230 H   0  0  0  0  0  0  0  0  0  0  0  0
  -19.7910  -11.2040   33.5120 H   0  0  0  0  0  0  0  0  0  0  0  0
  -19.7900  -14.5940   36.9050 C   0  0  0  0  0  0  0  0  0  0  0  0
  -20.5510  -14.2550   37.5770 H   0  0  0  0  0  0  0  0  0  0  0  0
  -19.7890  -14.9210   37.9250 H   0  0  0  0  0  0  0  0  0  0  0  0
  -18.7220  -15.5280   37.3930 C   0  0  0  0  0  0  0  0  0  0  0  0
  -18.9950  -16.4400   38.5520 C   0  0  0  0  0  0  0  0  0  0  0  0
  -17.9270  -17.3730   39.0400 C   0  0  0  0  0  0  0  0  0  0  0  0
  -16.5870  -17.3960   38.3680 C   0  0  0  0  0  0  0  0  0  0  0  0
  -16.3140  -16.4840   37.2080 C   0  0  0  0  0  0  0  0  0  0  0  0
  -17.3820  -15.5500   36.7210 C   0  0  0  0  0  0  0  0  0  0  0  0
  -19.9180  -16.4240   39.0150 H   0  0  0  0  0  0  0  0  0  0  0  0
  -18.1150  -18.0000   39.8380 H   0  0  0  0  0  0  0  0  0  0  0  0
  -15.8520  -18.0380   38.7030 H   0  0  0  0  0  0  0  0  0  0  0  0
  -15.3910  -16.4990   36.7460 H   0  0  0  0  0  0  0  0  0  0  0  0
  -17.1940  -14.9230   35.9230 H   0  0  0  0  0  0  0  0  0  0  0  0
  1 13  1  0
  2  1  2  0
  3  8  2  0
  3  2  1  0
  4  3  1  0
  5  4  2  0
  5  6  1  0
  6  7  2  0
  7  8  1  0
  7 43  1  0
  8  9  1  0
  9  1  1  0
 10  2  1  0
 11  5  1  0
 14 19  1  0
 14 26  1  0
 15 20  1  0
 17 18  1  0
 18 24  1  0
 18 25  1  0
 21 15  1  0
 22 16  1  0
 23 17  1  0
 26 28  1  0
 28 27  1  0
 30 35  1  0
 30 36  1  0
 31 38  1  0
 31 37  1  0
 33 32  1  0
 39 33  1  0
 40 33  1  0
 41 34  1  0
 42 34  1  0
 43 45  1  0
 44 43  1  0
 45 46  2  0
 45 50  1  0
 46 47  1  0
 47 52  1  0
 47 48  2  0
 48 55  1  0
 49 48  1  0
 49 53  1  0
 50 49  2  0
 51 46  1  0
 54 50  1  0
 55 58  1  0
 55 56  1  0
 55 57  1  0
 58 59  1  0
 59 64  1  0
 59 60  2  0
 60 65  1  0
 61 66  1  0
 61 60  1  0
 62 61  2  0
 63 62  1  0
 63 58  2  0
 67 62  1  0
 68 63  1  0
M  END
>  <minimizedAffinity>  (348) 
-10.7647676

$$$$

     RDKit          3D

 45 42  0  0  0  0  0  0  0  0999 V2000
  -18.5790  -14.9770   35.4340 C   0  0  0  0  0  2  0  0  0  0  0  0
  -19.7890  -15.5020   36.1490 O   0  0  0  0  0  1  0  0  0  0  0  0
  -17.2060  -15.3150   35.9340 N   0  0  0  0  0  0  0  0  0  0  0  0
  -17.0430  -16.1780   37.1500 C   0  0  0  0  0  0  0  0  0  0  0  0
  -18.1530  -16.7730   37.9650 N   0  0  0  0  0  0  0  0  0  0  0  0
  -17.5370  -17.5600   39.0830 N   0  0  0  0  0  0  0  0  0  0  0  0
  -16.0460  -17.4520   38.9590 C   0  0  0  0  0  0  0  0  0  0  0  0
  -14.9270  -18.0220   39.7800 N   0  0  0  0  0  0  0  0  0  0  0  0
  -13.5020  -17.7370   39.4050 N   0  0  0  0  0  0  0  0  0  0  0  0
  -13.1970  -16.8830   38.2110 C   0  0  0  0  0  0  0  0  0  0  0  0
  -14.3160  -16.3130   37.3900 C   0  0  0  0  0  0  0  0  0  0  0  0
  -15.7410  -16.5980   37.7640 C   0  0  0  0  0  0  0  0  0  0  0  0
  -16.4120  -14.9710   35.4640 H   0  0  0  0  0  0  0  0  0  0  0  0
  -18.0250  -18.0600   39.7770 H   0  0  0  0  0  0  0  0  0  0  0  0
  -14.1060  -15.7260   36.5680 H   0  0  0  0  0  0  0  0  0  0  0  0
  -19.0710  -12.3880   31.7850 N   0  0  0  0  0  2  0  0  0  0  0  0
  -19.1690  -13.8800   31.6650 C   0  0  0  0  0  3  0  0  0  0  0  0
  -19.0050  -14.7430   32.8820 C   0  0  0  0  0  2  0  0  0  0  0  0
  -18.7430  -14.1140   34.2170 C   0  0  0  0  0  1  0  0  0  0  0  0
  -18.6440  -12.6220   34.3380 C   0  0  0  0  0  2  0  0  0  0  0  0
  -18.8080  -11.7590   33.1220 C   0  0  0  0  0  2  0  0  0  0  0  0
  -19.3570  -14.3290   30.7120 H   0  0  0  0  0  0  0  0  0  0  0  0
  -19.2400  -14.9450   31.5800 H   0  0  0  0  0  0  0  0  0  0  0  0
  -19.0760  -15.8070   32.7960 H   0  0  0  0  0  0  0  0  0  0  0  0
  -18.8890  -15.3580   33.7490 H   0  0  0  0  0  0  0  0  0  0  0  0
  -18.5560  -13.6650   35.1710 H   0  0  0  0  0  0  0  0  0  0  0  0
  -18.4570  -12.1730   35.2910 H   0  0  0  0  0  0  0  0  0  0  0  0
  -18.5740  -11.5570   34.4230 H   0  0  0  0  0  0  0  0  0  0  0  0
  -18.7380  -10.6950   33.2080 H   0  0  0  0  0  0  0  0  0  0  0  0
  -18.9250  -11.1440   32.2540 H   0  0  0  0  0  0  0  0  0  0  0  0
  -19.2350  -11.5250   30.5700 C   0  0  0  0  0  0  0  0  0  0  0  0
  -19.4220  -11.9740   29.6170 H   0  0  0  0  0  0  0  0  0  0  0  0
  -19.1650  -10.4620   30.6550 H   0  0  0  0  0  0  0  0  0  0  0  0
  -19.3520  -10.9110   29.7020 H   0  0  0  0  0  0  0  0  0  0  0  0
  -11.7730  -16.5980   37.8370 C   0  0  0  0  0  0  0  0  0  0  0  0
  -11.4270  -16.2360   36.4230 C   0  0  0  0  0  0  0  0  0  0  0  0
  -10.0020  -15.9510   36.0480 C   0  0  0  0  0  0  0  0  0  0  0  0
   -8.9240  -16.0280   37.0880 C   0  0  0  0  0  0  0  0  0  0  0  0
   -9.2700  -16.3890   38.5020 C   0  0  0  0  0  0  0  0  0  0  0  0
  -10.6940  -16.6740   38.8760 C   0  0  0  0  0  0  0  0  0  0  0  0
  -12.1690  -16.1840   35.7070 H   0  0  0  0  0  0  0  0  0  0  0  0
   -9.7640  -15.7030   35.0750 H   0  0  0  0  0  0  0  0  0  0  0  0
   -7.9440  -15.8320   36.8310 H   0  0  0  0  0  0  0  0  0  0  0  0
   -8.5280  -16.4420   39.2180 H   0  0  0  0  0  0  0  0  0  0  0  0
  -10.9330  -16.9230   39.8500 H   0  0  0  0  0  0  0  0  0  0  0  0
  1  3  1  0
  1  2  1  0
  3  4  1  0
  4 12  1  0
  4  5  2  0
  5  6  1  0
  6 14  1  0
  7  6  1  0
  7  8  1  0
  9  8  2  0
 10  9  1  0
 11 12  1  0
 11 10  2  0
 12  7  2  0
 13  3  1  0
 15 11  1  0
 17 16  1  0
 18 25  1  0
 19 26  1  0
 20 28  1  0
 20 27  1  0
 21 29  1  0
 22 17  1  0
 23 17  1  0
 24 18  1  0
 30 21  1  0
 31 33  1  0
 31 16  1  0
 32 31  1  0
 34 31  1  0
 35 10  1  0
 35 40  1  0
 36 35  2  0
 37 36  1  0
 37 38  2  0
 38 39  1  0
 39 40  2  0
 39 44  1  0
 40 45  1  0
 41 36  1  0
 42 37  1  0
 43 38  1  0
M  END
>  <minimizedAffinity>  (349) 
-9.88663578

$$$$

     RDKit          3D

 50 49  0  0  0  0  0  0  0  0999 V2000
  -16.4910  -15.4220   35.5400 C   0  0  0  0  0  0  0  0  0  0  0  0
  -17.8930  -15.0770   35.1350 C   0  0  0  0  0  0  0  0  0  0  0  0
  -18.1340  -14.0830   34.0380 C   0  0  0  0  0  0  0  0  0  0  0  0
  -16.9720  -13.4340   33.3450 C   0  0  0  0  0  0  0  0  0  0  0  0
  -15.5700  -13.7790   33.7510 C   0  0  0  0  0  0  0  0  0  0  0  0
  -15.3290  -14.7730   34.8480 C   0  0  0  0  0  0  0  0  0  0  0  0
  -18.6930  -15.5230   35.6110 H   0  0  0  0  0  0  0  0  0  0  0  0
  -19.0990  -13.8460   33.7590 H   0  0  0  0  0  0  0  0  0  0  0  0
  -14.7700  -13.3330   33.2740 H   0  0  0  0  0  0  0  0  0  0  0  0
  -13.9270  -15.1180   35.2530 C   0  0  0  0  0  0  0  0  0  0  0  0
  -13.6840  -15.9680   36.4650 C   0  0  0  0  0  0  0  0  0  0  0  0
  -12.2810  -16.3130   36.8700 C   0  0  0  0  0  0  0  0  0  0  0  0
  -11.1220  -15.8080   36.0630 C   0  0  0  0  0  0  0  0  0  0  0  0
  -11.3650  -14.9580   34.8520 C   0  0  0  0  0  0  0  0  0  0  0  0
  -12.7670  -14.6130   34.4460 C   0  0  0  0  0  0  0  0  0  0  0  0
  -14.4820  -16.3160   37.0200 H   0  0  0  0  0  0  0  0  0  0  0  0
  -12.1140  -16.8980   37.7030 H   0  0  0  0  0  0  0  0  0  0  0  0
  -10.5670  -14.6100   34.2970 H   0  0  0  0  0  0  0  0  0  0  0  0
  -12.9340  -14.0280   33.6130 H   0  0  0  0  0  0  0  0  0  0  0  0
   -9.7190  -16.1530   36.4680 C   0  0  0  0  0  0  0  0  0  0  0  0
   -8.7610  -16.7060   35.4560 O   0  0  0  0  0  0  0  0  0  0  0  0
   -9.2760  -15.9460   37.8860 N   0  0  0  0  0  4  0  0  0  0  0  0
   -9.9040  -15.5830   38.5500 H   0  0  0  0  0  0  0  0  0  0  0  0
   -7.8730  -16.2910   38.2910 C   0  0  0  0  0  0  0  0  0  0  0  0
   -7.1280  -15.5250   38.3470 H   0  0  0  0  0  0  0  0  0  0  0  0
   -6.8730  -16.5370   38.5800 H   0  0  0  0  0  0  0  0  0  0  0  0
   -7.5150  -17.7100   38.6190 C   0  0  0  0  0 15  0  0  0  0  0  0
   -7.8160  -19.1770   38.5390 C   0  0  0  0  0  3  0  0  0  0  0  0
   -6.5930  -18.7010   39.2660 C   0  0  0  0  0  2  0  0  0  0  0  0
   -7.2590  -18.7230   38.8520 H   0  0  0  0  0  0  0  0  0  0  0  0
   -8.4430  -19.9780   38.2060 H   0  0  0  0  0  0  0  0  0  0  0  0
   -7.3430  -20.0680   38.8980 H   0  0  0  0  0  0  0  0  0  0  0  0
   -5.7110  -18.9130   39.8310 H   0  0  0  0  0  0  0  0  0  0  0  0
   -6.1580  -17.7450   39.4670 H   0  0  0  0  0  0  0  0  0  0  0  0
  -16.2500  -16.4160   36.6380 C   0  0  0  0  0  0  0  0  0  0  0  0
  -17.0790  -16.8790   37.1310 H   0  0  0  0  0  0  0  0  0  0  0  0
  -15.2490  -16.6620   36.9260 H   0  0  0  0  0  0  0  0  0  0  0  0
  -16.0780  -17.1250   37.4200 H   0  0  0  0  0  0  0  0  0  0  0  0
  -17.2130  -12.4400   32.2480 N   0  0  0  0  0  0  0  0  0  0  0  0
  -16.4820  -12.5700   30.9450 C   0  0  0  0  0  0  0  0  0  0  0  0
  -15.5100  -13.6940   30.7390 O   0  0  0  0  0  0  0  0  0  0  0  0
  -17.8510  -11.7020   32.3840 H   0  0  0  0  0  0  0  0  0  0  0  0
  -16.7230  -11.5760   29.8470 C   0  0  0  0  0  0  0  0  0  0  0  0
  -16.0580  -10.2390   29.7070 C   0  0  0  0  0  0  0  0  0  0  0  0
  -16.5940   -9.5820   28.4710 C   0  0  0  0  0  0  0  0  0  0  0  0
  -17.5910  -10.5120   27.8470 O   0  0  0  0  0  0  0  0  0  0  0  0
  -17.6710  -11.7450   28.6970 C   0  0  0  0  0  0  0  0  0  0  0  0
  -15.3540   -9.8410   30.3490 H   0  0  0  0  0  0  0  0  0  0  0  0
  -16.3250   -8.6520   28.1130 H   0  0  0  0  0  0  0  0  0  0  0  0
  -18.2720  -12.5650   28.5220 H   0  0  0  0  0  0  0  0  0  0  0  0
  1 35  1  0
  2  1  1  0
  2  7  1  0
  3  2  2  0
  4  5  2  0
  4  3  1  0
  5  6  1  0
  6 10  1  0
  6  1  2  0
  8  3  1  0
  9  5  1  0
 10 11  1  0
 11 12  2  0
 11 16  1  0
 12 17  1  0
 13 20  1  0
 13 12  1  0
 14 13  2  0
 15 14  1  0
 15 10  2  0
 18 14  1  0
 19 15  1  0
 20 22  1  0
 21 20  2  0
 22 24  2  0
 22 23  1  0
 24 25  1  0
 24 26  1  0
 28 30  1  0
 28 32  1  0
 29 34  1  0
 29 33  1  0
 31 28  1  0
 35 37  1  0
 35 36  1  0
 35 38  1  0
 39 42  1  0
 39  4  1  0
 40 39  1  0
 41 40  2  0
 43 40  1  0
 44 43  1  0
 44 48  1  0
 45 44  2  0
 46 45  1  0
 46 47  1  0
 47 43  2  0
 49 45  1  0
 50 47  1  0
M  END
>  <minimizedAffinity>  (350) 
-9.64539528

$$$$

     RDKit          3D

 48 51  0  0  1  0  0  0  0  0999 V2000
  -14.8110  -15.6770   36.6620 N   0  0  0  0  0  0  0  0  0  0  0  0
  -14.8360  -15.1060   35.2750 N   0  0  0  0  0  0  0  0  0  0  0  0
  -16.2690  -14.9200   34.8760 C   0  0  0  0  0  0  0  0  0  0  0  0
  -17.1310  -15.3770   36.0160 C   0  0  0  0  0  0  0  0  0  0  0  0
  -18.6200  -15.4270   36.1910 C   0  0  0  0  0  3  0  0  0  0  0  0
  -19.2070  -15.9450   37.4710 N   0  0  0  0  0  0  0  0  0  0  0  0
  -18.3060  -16.4130   38.5740 C   0  0  0  0  0  0  0  0  0  0  0  0
  -16.8170  -16.3620   38.3990 N   0  0  0  0  0  2  0  0  0  0  0  0
  -16.2300  -15.8440   37.1200 C   0  0  0  0  0  0  0  0  0  0  0  0
  -16.6050  -14.5440   33.9750 H   0  0  0  0  0  0  0  0  0  0  0  0
  -18.7100  -16.7690   39.4550 H   0  0  0  0  0  0  0  0  0  0  0  0
  -12.4020  -16.3550   39.7420 C   0  0  0  0  0  0  0  0  0  0  0  0
  -11.1280  -16.7080   39.0330 C   0  0  0  0  0  0  0  0  0  0  0  0
  -11.0810  -16.7170   37.5340 C   0  0  0  0  0  0  0  0  0  0  0  0
  -12.3090  -16.3730   36.7440 C   0  0  0  0  0  0  0  0  0  0  0  0
  -13.5830  -16.0210   37.4530 C   0  0  0  0  0  0  0  0  0  0  0  0
  -13.6300  -16.0110   38.9510 C   0  0  0  0  0  0  0  0  0  0  0  0
  -10.2830  -16.9440   39.5770 H   0  0  0  0  0  0  0  0  0  0  0  0
  -10.2050  -16.9600   37.0460 H   0  0  0  0  0  0  0  0  0  0  0  0
  -12.2770  -16.3800   35.7130 H   0  0  0  0  0  0  0  0  0  0  0  0
  -14.5060  -15.7690   39.4390 H   0  0  0  0  0  0  0  0  0  0  0  0
  -12.4490  -16.3460   41.2420 O   0  0  0  0  0  0  0  0  0  0  0  0
  -12.3870  -15.0440   41.9860 C   0  0  0  0  0  0  0  0  0  0  0  0
  -12.3090  -14.1230   41.4460 H   0  0  0  0  0  0  0  0  0  0  0  0
  -12.4200  -15.0370   43.0550 H   0  0  0  0  0  0  0  0  0  0  0  0
  -12.3420  -14.1160   42.5160 H   0  0  0  0  0  0  0  0  0  0  0  0
  -19.5210  -14.9590   35.0870 N   0  0  0  0  0  0  0  0  0  0  0  0
  -20.4660  -15.2370   35.0720 H   0  0  0  0  0  0  0  0  0  0  0  0
  -18.9840  -14.0680   34.0070 N   0  0  0  0  0  0  0  0  0  0  0  0
  -19.0050  -14.5240   32.5790 C   0  0  0  0  0  0  0  0  0  0  0  0
  -19.3890  -15.4520   32.3390 H   0  0  0  0  0  0  0  0  0  0  0  0
  -18.4680  -13.6330   31.4980 C   0  0  0  0  0  0  0  0  0  0  0  0
  -19.3510  -13.2200   30.3590 C   0  0  0  0  0  0  0  0  0  0  0  0
  -18.8140  -12.3290   29.2780 C   0  0  0  0  0  0  0  0  0  0  0  0
  -17.3930  -11.8510   29.3380 C   0  0  0  0  0  0  0  0  0  0  0  0
  -16.5100  -12.2640   30.4770 C   0  0  0  0  0  0  0  0  0  0  0  0
  -17.0470  -13.1560   31.5580 C   0  0  0  0  0  0  0  0  0  0  0  0
  -20.3290  -13.5490   30.3180 H   0  0  0  0  0  0  0  0  0  0  0  0
  -19.4220  -12.0440   28.4940 H   0  0  0  0  0  0  0  0  0  0  0  0
  -15.5320  -11.9360   30.5180 H   0  0  0  0  0  0  0  0  0  0  0  0
  -16.4390  -13.4400   32.3420 H   0  0  0  0  0  0  0  0  0  0  0  0
  -16.8560  -10.9600   28.2570 S   0  0  1  0  0  0  0  0  0  0  0  0
  -17.8470  -11.5350   27.2900 O   0  0  0  0  0  0  0  0  0  0  0  0
  -15.8640  -10.3850   29.2250 O   0  0  0  0  0  0  0  0  0  0  0  0
  -16.3180  -10.0690   27.1770 C   0  0  0  0  0  0  0  0  0  0  0  0
  -15.5140   -9.3950   27.3900 H   0  0  0  0  0  0  0  0  0  0  0  0
  -16.7400  -10.1060   26.1940 H   0  0  0  0  0  0  0  0  0  0  0  0
  -15.9350   -9.4330   26.4060 H   0  0  0  0  0  0  0  0  0  0  0  0
  1  9  1  0
  1 16  1  0
  2  1  1  0
  3  2  2  0
  3  4  1  0
  4  5  1  0
  4  9  2  0
  5 27  1  0
  5  6  1  0
  6  7  2  0
  7 11  1  0
  8  7  1  0
  9  8  1  0
 10  3  1  0
 12 22  1  0
 13 18  1  0
 13 12  1  0
 14 13  2  0
 15 16  2  0
 15 14  1  0
 16 17  1  0
 17 21  1  0
 17 12  2  0
 19 14  1  0
 20 15  1  0
 22 23  1  0
 23 26  1  0
 23 25  1  0
 24 23  1  0
 28 27  1  0
 29 27  1  0
 30 29  2  0
 31 30  1  0
 32 37  1  0
 32 30  1  0
 33 32  2  0
 34 35  2  0
 34 33  1  0
 35 36  1  0
 36 40  1  0
 36 37  2  0
 37 41  1  0
 38 33  1  0
 39 34  1  0
 42 44  2  0
 42 35  1  0
 43 42  2  0
 45 46  1  0
 45 42  1  0
 47 45  1  0
 48 45  1  0
M  END
>  <minimizedAffinity>  (351) 
-7.57248926

$$$$

     RDKit          3D

 50 53  0  0  0  0  0  0  0  0999 V2000
  -17.0200  -14.4120   35.3330 N   0  0  0  0  0  0  0  0  0  0  0  0
  -17.1130  -15.3700   36.4830 C   0  0  0  0  0  0  0  0  0  0  0  0
  -18.3780  -15.9060   37.0850 C   0  0  0  0  0  0  0  0  0  0  0  0
  -19.7730  -15.5790   36.6410 O   0  0  0  0  0  0  0  0  0  0  0  0
  -18.0040  -16.8280   38.2080 N   0  0  0  0  0  0  0  0  0  0  0  0
  -16.5070  -16.8600   38.3010 C   0  0  0  0  0  0  0  0  0  0  0  0
  -15.5740  -17.5940   39.2180 C   0  0  0  0  0  0  0  0  0  0  0  0
  -14.0910  -17.4280   39.0700 C   0  0  0  0  0  0  0  0  0  0  0  0
  -13.5410  -16.5270   38.0040 C   0  0  0  0  0  0  0  0  0  0  0  0
  -14.4730  -15.7930   37.0870 C   0  0  0  0  0  0  0  0  0  0  0  0
  -15.9570  -15.9600   37.2350 C   0  0  0  0  0  0  0  0  0  0  0  0
  -18.6310  -17.3230   38.7830 H   0  0  0  0  0  0  0  0  0  0  0  0
  -15.9530  -18.2140   39.9510 H   0  0  0  0  0  0  0  0  0  0  0  0
  -13.4490  -17.9330   39.7010 H   0  0  0  0  0  0  0  0  0  0  0  0
  -14.0950  -15.1730   36.3540 H   0  0  0  0  0  0  0  0  0  0  0  0
  -12.0570  -16.3600   37.8560 C   0  0  0  0  0  0  0  0  0  0  0  0
  -11.1780  -16.3510   39.0710 O   0  0  0  0  0  0  0  0  0  0  0  0
  -11.4530  -16.2020   36.4920 N   0  0  0  0  0  0  0  0  0  0  0  0
  -12.0300  -16.2080   35.6950 H   0  0  0  0  0  0  0  0  0  0  0  0
   -9.9700  -16.0350   36.3440 C   0  0  0  0  0  0  0  0  0  0  0  0
   -9.5780  -15.3510   35.6200 H   0  0  0  0  0  0  0  0  0  0  0  0
   -8.9110  -15.9170   36.2380 H   0  0  0  0  0  0  0  0  0  0  0  0
   -9.0360  -16.8280   37.2090 C   0  0  0  0  0  0  0  0  0  0  0  0
   -8.0600  -16.1220   38.1030 C   0  0  0  0  0  0  0  0  0  0  0  0
   -7.1260  -16.9150   38.9680 C   0  0  0  0  0  0  0  0  0  0  0  0
   -7.1670  -18.4140   38.9400 N   0  0  0  0  0  0  0  0  0  0  0  0
   -8.1430  -19.1200   38.0460 C   0  0  0  0  0  0  0  0  0  0  0  0
   -9.0770  -18.3270   37.1800 C   0  0  0  0  0  0  0  0  0  0  0  0
   -8.0310  -15.0900   38.1220 H   0  0  0  0  0  0  0  0  0  0  0  0
   -6.4550  -16.4290   39.5830 H   0  0  0  0  0  0  0  0  0  0  0  0
   -8.1720  -20.1520   38.0260 H   0  0  0  0  0  0  0  0  0  0  0  0
   -9.7490  -18.8130   36.5650 H   0  0  0  0  0  0  0  0  0  0  0  0
  -18.2700  -13.9050   34.6770 N   0  0  0  0  0  0  0  0  0  0  0  0
  -19.0770  -13.7400   35.2170 H   0  0  0  0  0  0  0  0  0  0  0  0
  -18.3330  -13.1360   30.2440 C   0  0  0  0  0  0  0  0  0  0  0  0
  -17.0540  -12.9850   31.0130 C   0  0  0  0  0  0  0  0  0  0  0  0
  -17.0330  -13.2420   32.4910 C   0  0  0  0  0  0  0  0  0  0  0  0
  -18.2910  -13.6490   33.1990 C   0  0  0  0  0  0  0  0  0  0  0  0
  -19.5700  -13.8000   32.4300 C   0  0  0  0  0  0  0  0  0  0  0  0
  -19.5910  -13.5430   30.9520 C   0  0  0  0  0  0  0  0  0  0  0  0
  -16.1880  -12.7050   30.5260 H   0  0  0  0  0  0  0  0  0  0  0  0
  -16.1540  -13.1380   33.0200 H   0  0  0  0  0  0  0  0  0  0  0  0
  -20.4360  -14.0800   32.9180 H   0  0  0  0  0  0  0  0  0  0  0  0
  -20.4700  -13.6470   30.4220 H   0  0  0  0  0  0  0  0  0  0  0  0
  -18.3540  -12.8800   28.7660 S   0  0  1  0  0  0  0  0  0  0  0  0
  -17.2650  -11.8610   28.9270 O   0  0  0  0  0  0  0  0  0  0  0  0
  -19.4430  -13.8980   28.6050 O   0  0  0  0  0  0  0  0  0  0  0  0
  -18.3740  -12.6230   27.2880 N   0  0  0  0  0  0  0  0  0  0  0  0
  -17.7400  -11.9360   26.8810 H   0  0  0  0  0  0  0  0  0  0  0  0
  -19.0230  -13.1360   26.6910 H   0  0  0  0  0  0  0  0  0  0  0  0
  1  2  2  0
  2  3  1  0
  2 11  1  0
  3  5  1  0
  4  3  2  0
  5  6  1  0
  5 12  1  0
  6  7  1  0
  7 13  1  0
  8  7  2  0
  8 14  1  0
  9  8  1  0
 10 11  1  0
 10  9  2  0
 11  6  2  0
 15 10  1  0
 16  9  1  0
 16 17  2  0
 18 16  1  0
 19 18  1  0
 20 18  1  0
 20 23  1  0
 21 20  1  0
 22 20  1  0
 23 24  1  0
 24 29  1  0
 24 25  2  0
 25 30  1  0
 26 25  1  0
 27 26  2  0
 28 23  2  0
 28 27  1  0
 31 27  1  0
 32 28  1  0
 33 34  1  0
 33  1  1  0
 35 40  2  0
 35 36  1  0
 36 37  2  0
 37 42  1  0
 37 38  1  0
 38 33  1  0
 39 43  1  0
 39 38  2  0
 40 39  1  0
 41 36  1  0
 44 40  1  0
 45 46  2  0
 45 35  1  0
 47 45  2  0
 48 45  1  0
 49 48  1  0
 50 48  1  0
M  END
>  <minimizedAffinity>  (352) 
-9.6480875

$$$$

     RDKit          3D

 49 50  0  0  0  0  0  0  0  0999 V2000
  -14.5390  -14.9970   34.4820 C   0  0  0  0  0  0  0  0  0  0  0  0
  -13.9880  -13.9910   33.5140 C   0  0  0  0  0  0  0  0  0  0  0  0
  -14.9100  -13.0300   32.8260 C   0  0  0  0  0  0  0  0  0  0  0  0
  -16.3830  -13.0730   33.1040 C   0  0  0  0  0  0  0  0  0  0  0  0
  -16.9340  -14.0790   34.0710 C   0  0  0  0  0  0  0  0  0  0  0  0
  -16.0120  -15.0400   34.7600 C   0  0  0  0  0  0  0  0  0  0  0  0
  -12.9740  -13.9610   33.3230 H   0  0  0  0  0  0  0  0  0  0  0  0
  -14.5300  -12.3380   32.1600 H   0  0  0  0  0  0  0  0  0  0  0  0
  -17.9480  -14.1090   34.2620 H   0  0  0  0  0  0  0  0  0  0  0  0
  -17.3050  -12.1110   32.4150 C   0  0  0  0  0  0  0  0  0  0  0  0
  -17.5410  -11.1740   32.8750 H   0  0  0  0  0  0  0  0  0  0  0  0
  -17.9630  -11.4250   31.9240 H   0  0  0  0  0  0  0  0  0  0  0  0
  -17.8960  -12.4630   31.0820 C   0  0  0  0  0  0  0  0  0  0  0  0
  -19.1160  -13.3320   31.0080 C   0  0  0  0  0  0  0  0  0  0  0  0
  -19.7070  -13.6840   29.6750 N   0  0  0  0  0  0  0  0  0  0  0  0
  -19.0780  -13.1660   28.4160 C   0  0  0  0  0  0  0  0  0  0  0  0
  -19.6690  -13.5180   27.0830 N   0  0  0  0  0  0  0  0  0  0  0  0
  -17.8570  -12.2970   28.4890 N   0  0  0  0  0  0  0  0  0  0  0  0
  -17.2670  -11.9460   29.8220 C   0  0  0  0  0  0  0  0  0  0  0  0
  -16.0460  -11.0760   29.8960 N   0  0  0  0  0  0  0  0  0  0  0  0
  -19.5490  -13.6880   31.8750 H   0  0  0  0  0  0  0  0  0  0  0  0
  -20.4700  -14.0880   27.0340 H   0  0  0  0  0  0  0  0  0  0  0  0
  -19.2560  -13.1780   26.2560 H   0  0  0  0  0  0  0  0  0  0  0  0
  -15.6330  -10.7370   29.0700 H   0  0  0  0  0  0  0  0  0  0  0  0
  -15.6580  -10.8450   30.7710 H   0  0  0  0  0  0  0  0  0  0  0  0
  -13.6170  -15.9590   35.1700 O   0  0  0  0  0  1  0  0  0  0  0  0
  -12.7900  -15.5010   36.3350 C   0  0  0  0  0  3  0  0  0  0  0  0
  -13.1290  -14.6910   36.9470 H   0  0  0  0  0  0  0  0  0  0  0  0
  -13.7190  -15.0180   36.1160 H   0  0  0  0  0  0  0  0  0  0  0  0
   -8.8820  -17.5340   37.2570 C   0  0  0  0  0  0  0  0  0  0  0  0
  -10.0690  -17.7500   38.1490 C   0  0  0  0  0  0  0  0  0  0  0  0
  -11.3710  -17.0730   37.8420 C   0  0  0  0  0  0  0  0  0  0  0  0
  -11.4870  -16.1790   36.6430 C   0  0  0  0  0  0  0  0  0  0  0  0
  -10.3010  -15.9630   35.7510 C   0  0  0  0  0  0  0  0  0  0  0  0
   -8.9980  -16.6400   36.0580 C   0  0  0  0  0  0  0  0  0  0  0  0
   -9.9890  -18.3650   38.9740 H   0  0  0  0  0  0  0  0  0  0  0  0
  -12.1880  -17.2210   38.4550 H   0  0  0  0  0  0  0  0  0  0  0  0
  -10.3800  -15.3470   34.9260 H   0  0  0  0  0  0  0  0  0  0  0  0
   -8.1820  -16.4910   35.4440 H   0  0  0  0  0  0  0  0  0  0  0  0
   -7.5800  -18.2110   37.5640 O   0  0  0  0  0  0  0  0  0  0  0  0
   -7.1200  -18.3440   38.9860 C   0  0  0  0  0  0  0  0  0  0  0  0
   -7.7220  -17.9550   39.7810 H   0  0  0  0  0  0  0  0  0  0  0  0
   -6.1910  -18.8270   39.2050 H   0  0  0  0  0  0  0  0  0  0  0  0
   -6.7930  -18.4390   40.0010 H   0  0  0  0  0  0  0  0  0  0  0  0
  -16.5630  -16.0460   35.7270 O   0  0  0  0  0  0  0  0  0  0  0  0
  -16.5190  -15.7710   37.2010 C   0  0  0  0  0  0  0  0  0  0  0  0
  -16.0940  -14.8580   37.5620 H   0  0  0  0  0  0  0  0  0  0  0  0
  -16.9120  -16.4880   37.8910 H   0  0  0  0  0  0  0  0  0  0  0  0
  -16.4880  -15.5750   38.2530 H   0  0  0  0  0  0  0  0  0  0  0  0
  1  6  1  0
  1 26  1  0
  2  1  2  0
  3  4  2  0
  3  2  1  0
  4  5  1  0
  5  9  1  0
  5  6  2  0
  6 45  1  0
  7  2  1  0
  8  3  1  0
 10 11  1  0
 10  4  1  0
 12 10  1  0
 13 10  1  0
 14 13  2  0
 14 21  1  0
 15 14  1  0
 16 18  1  0
 16 15  2  0
 17 16  1  0
 18 19  2  0
 19 20  1  0
 19 13  1  0
 20 25  1  0
 22 17  1  0
 23 17  1  0
 24 20  1  0
 27 33  1  0
 27 28  1  0
 29 27  1  0
 30 40  1  0
 30 31  1  0
 31 36  1  0
 32 31  2  0
 32 37  1  0
 33 32  1  0
 34 35  1  0
 34 33  2  0
 35 30  2  0
 38 34  1  0
 39 35  1  0
 40 41  1  0
 41 43  1  0
 41 42  1  0
 41 44  1  0
 45 46  1  0
 46 47  1  0
 46 48  1  0
 46 49  1  0
M  END
>  <minimizedAffinity>  (353) 
-9.85896397

$$$$

     RDKit          3D

 46 49  0  0  1  0  0  0  0  0999 V2000
  -14.1300  -13.6900   31.7150 N   0  0  0  0  0  0  0  0  0  0  0  0
  -13.9690  -14.2200   33.1090 C   0  0  0  0  0  3  0  0  0  0  0  0
  -15.1400  -14.2370   34.0450 N   0  0  0  0  0  0  0  0  0  0  0  0
  -14.9790  -14.7680   35.4390 C   0  0  0  0  0  0  0  0  0  0  0  0
  -13.6460  -15.2810   35.8960 N   0  0  0  0  0  2  0  0  0  0  0  0
  -12.4740  -15.2640   34.9600 C   0  0  0  0  0  0  0  0  0  0  0  0
  -12.6350  -14.7330   33.5660 C   0  0  0  0  0  0  0  0  0  0  0  0
  -11.3100  -14.8420   32.8720 C   0  0  0  0  0  0  0  0  0  0  0  0
  -10.3290  -15.4390   33.8370 N   0  0  0  0  0  0  0  0  0  0  0  0
  -11.0490  -15.7000   35.1270 N   0  0  0  0  0  0  0  0  0  0  0  0
  -13.3610  -13.6780   31.1000 H   0  0  0  0  0  0  0  0  0  0  0  0
  -15.7850  -14.7800   36.0830 H   0  0  0  0  0  0  0  0  0  0  0  0
  -11.1080  -14.5560   31.9020 H   0  0  0  0  0  0  0  0  0  0  0  0
  -10.4480  -16.2930   36.3680 C   0  0  0  0  0  0  0  0  0  0  0  0
  -11.0630  -16.0120   37.7070 C   0  0  0  0  0  0  0  0  0  0  0  0
  -10.4620  -16.6050   38.9470 C   0  0  0  0  0  0  0  0  0  0  0  0
   -9.2470  -17.4790   38.8470 C   0  0  0  0  0  0  0  0  0  0  0  0
   -8.6330  -17.7600   37.5080 C   0  0  0  0  0  0  0  0  0  0  0  0
   -9.2330  -17.1670   36.2680 C   0  0  0  0  0  0  0  0  0  0  0  0
  -11.8980  -15.4110   37.7750 H   0  0  0  0  0  0  0  0  0  0  0  0
  -10.8850  -16.4120   39.8680 H   0  0  0  0  0  0  0  0  0  0  0  0
   -8.8340  -17.8870   39.7010 H   0  0  0  0  0  0  0  0  0  0  0  0
   -8.8100  -17.3610   35.3470 H   0  0  0  0  0  0  0  0  0  0  0  0
   -7.4170  -18.6350   37.4090 O   0  0  0  0  0  0  0  0  0  0  0  0
   -6.6880  -19.0500   38.6530 C   0  0  0  0  0  0  0  0  0  0  0  0
   -7.0360  -18.7220   39.6110 H   0  0  0  0  0  0  0  0  0  0  0  0
   -5.8220  -19.6730   38.5820 H   0  0  0  0  0  0  0  0  0  0  0  0
   -6.1690  -19.3460   39.5400 H   0  0  0  0  0  0  0  0  0  0  0  0
  -15.7110  -11.6990   31.1780 C   0  0  0  0  0  0  0  0  0  0  0  0
  -15.4630  -13.1760   31.2580 N   0  0  0  0  0  0  0  0  0  0  0  0
  -14.9640  -11.0360   31.4380 H   0  0  0  0  0  0  0  0  0  0  0  0
  -19.0190  -11.2430   29.0340 C   0  0  0  0  0  0  0  0  0  0  0  0
  -19.7110  -10.1590   29.8070 C   0  0  0  0  0  0  0  0  0  0  0  0
  -19.0690   -9.5890   31.0370 C   0  0  0  0  0  0  0  0  0  0  0  0
  -17.7360  -10.1020   31.4940 C   0  0  0  0  0  0  0  0  0  0  0  0
  -17.0440  -11.1860   30.7210 C   0  0  0  0  0  0  0  0  0  0  0  0
  -17.6860  -11.7560   29.4910 C   0  0  0  0  0  0  0  0  0  0  0  0
  -20.6280   -9.8060   29.4920 H   0  0  0  0  0  0  0  0  0  0  0  0
  -19.5450   -8.8430   31.5680 H   0  0  0  0  0  0  0  0  0  0  0  0
  -17.2950   -9.7090   32.3400 H   0  0  0  0  0  0  0  0  0  0  0  0
  -17.2100  -12.5020   28.9590 H   0  0  0  0  0  0  0  0  0  0  0  0
  -19.6610  -11.8140   27.8040 O   0  0  0  0  0  0  0  0  0  0  0  0
  -19.4170  -13.2440   27.4260 C   0  0  0  0  0  0  0  0  0  0  0  0
  -18.7850  -13.8580   28.0330 H   0  0  0  0  0  0  0  0  0  0  0  0
  -19.8750  -13.6510   26.5480 H   0  0  0  0  0  0  0  0  0  0  0  0
  -19.2430  -14.2650   27.1560 H   0  0  0  0  0  0  0  0  0  0  0  0
  2  1  1  0
  2  7  1  0
  2  3  1  0
  3  4  2  0
  4  5  1  0
  4 12  1  0
  6 10  1  0
  6  5  1  0
  7  6  2  0
  8  7  1  0
  8  9  2  0
  9 10  1  0
 10 14  1  0
 11  1  1  0
 13  8  1  0
 14 15  1  0
 15 20  1  0
 15 16  2  0
 16 21  1  0
 17 16  1  0
 17 22  1  0
 18 17  2  0
 19 14  2  0
 19 18  1  0
 23 19  1  0
 24 18  1  0
 24 25  1  0
 25 28  1  0
 25 26  1  0
 27 25  1  0
 29 30  2  0
 29 31  1  0
 30  1  1  0
 32 37  2  0
 32 33  1  0
 33 34  2  0
 34 35  1  0
 34 39  1  0
 35 40  1  0
 36 29  1  0
 36 35  2  0
 37 36  1  0
 38 33  1  0
 41 37  1  0
 42 32  1  0
 43 42  1  0
 43 44  1  0
 45 43  1  0
 46 43  1  0
M  END
>  <minimizedAffinity>  (354) 
-7.38098335

$$$$

     RDKit          3D

 43 36  0  0  0  0  0  0  0  0999 V2000
  -12.9140  -16.4270   37.2400 N   0  0  0  0  0 15  0  0  0  0  0  0
  -11.5880  -15.9510   36.7230 C   0  0  0  0  0  2  0  0  0  0  0  0
  -11.8410  -15.0830   35.5260 N   0  0  0  0  0  2  0  0  0  0  0  0
  -13.3230  -15.0220   35.3030 C   0  0  0  0  0  0  0  0  0  0  0  0
  -14.1550  -14.3180   34.2720 C   0  0  0  0  0  0  0  0  0  0  0  0
  -15.6490  -14.4450   34.2990 N   0  0  0  0  0  0  0  0  0  0  0  0
  -16.3120  -15.2750   35.3580 C   0  0  0  0  0  0  0  0  0  0  0  0
  -15.4800  -15.9790   36.3890 C   0  0  0  0  0  0  0  0  0  0  0  0
  -13.9860  -15.8530   36.3610 C   0  0  0  0  0  3  0  0  0  0  0  0
  -13.6990  -13.7470   33.5430 H   0  0  0  0  0  0  0  0  0  0  0  0
  -17.3400  -15.3620   35.3770 H   0  0  0  0  0  0  0  0  0  0  0  0
  -16.1430  -16.8100   37.4480 C   0  0  0  0  0  2  0  0  0  0  0  0
  -15.9260  -18.2930   37.4830 O   0  0  0  0  0  1  0  0  0  0  0  0
  -17.0230  -16.1560   38.4720 N   0  0  0  0  0 15  0  0  0  0  0  0
  -17.7490  -16.8530   39.5850 C   0  0  0  0  0  2  0  0  0  0  0  0
  -18.5070  -15.8190   40.3630 C   0  0  0  0  0  2  0  0  0  0  0  0
  -18.2490  -14.4830   39.7320 C   0  0  0  0  0  1  0  0  0  0  0  0
  -17.3320  -14.6920   38.5630 C   0  0  0  0  0  2  0  0  0  0  0  0
  -17.7300  -17.9030   39.7870 H   0  0  0  0  0  0  0  0  0  0  0  0
  -18.3230  -17.1970   40.4190 H   0  0  0  0  0  0  0  0  0  0  0  0
  -19.1220  -16.0020   41.2190 H   0  0  0  0  0  0  0  0  0  0  0  0
  -18.9830  -14.9710   40.8100 H   0  0  0  0  0  0  0  0  0  0  0  0
  -18.8920  -14.5000   40.5870 H   0  0  0  0  0  0  0  0  0  0  0  0
  -16.9640  -13.9290   37.9090 H   0  0  0  0  0  0  0  0  0  0  0  0
  -16.6840  -15.0030   37.7710 H   0  0  0  0  0  0  0  0  0  0  0  0
  -18.8100  -13.1690   40.1890 N   0  0  0  0  0  2  0  0  0  0  0  0
  -18.5730  -12.3110   39.6890 H   0  0  0  0  0  0  0  0  0  0  0  0
  -19.4280  -13.1330   41.0000 H   0  0  0  0  0  0  0  0  0  0  0  0
  -10.2450  -16.2840   37.3020 C   0  0  0  0  0  0  0  0  0  0  0  0
   -9.8730  -16.2290   38.7550 N   0  0  0  0  0  0  0  0  0  0  0  0
   -8.4360  -16.6420   38.8810 O   0  0  0  0  0  0  0  0  0  0  0  0
   -7.9210  -16.9530   37.5070 N   0  0  0  0  0  0  0  0  0  0  0  0
   -9.0390  -16.7320   36.5310 C   0  0  0  0  0  0  0  0  0  0  0  0
   -8.9630  -16.9250   35.0460 N   0  0  0  0  0  0  0  0  0  0  0  0
   -9.7550  -16.7540   34.4860 H   0  0  0  0  0  0  0  0  0  0  0  0
   -8.1230  -17.2230   34.6300 H   0  0  0  0  0  0  0  0  0  0  0  0
  -13.1290  -17.3190   38.4250 C   0  0  0  0  0  3  0  0  0  0  0  0
  -13.1000  -18.3830   38.3070 H   0  0  0  0  0  0  0  0  0  0  0  0
  -12.9460  -17.7450   37.4610 H   0  0  0  0  0  0  0  0  0  0  0  0
  -13.3860  -16.7230   39.7770 C   0  0  0  0  0  0  0  0  0  0  0  0
  -13.4160  -15.6590   39.8950 H   0  0  0  0  0  0  0  0  0  0  0  0
  -13.5400  -17.3590   40.6220 H   0  0  0  0  0  0  0  0  0  0  0  0
  -13.5700  -16.2970   40.7410 H   0  0  0  0  0  0  0  0  0  0  0  0
  2 29  1  0
  3  2  1  0
  4  3  1  0
  4  9  1  0
  5  6  1  0
  5  4  2  0
  6  7  2  0
  7 11  1  0
  7  8  1  0
  8 12  1  0
  9  8  2  0
 10  5  1  0
 12 13  1  0
 15 19  1  0
 15 20  1  0
 16 22  1  0
 16 21  1  0
 17 23  1  0
 24 18  1  0
 25 18  1  0
 26 28  1  0
 27 26  1  0
 29 30  2  0
 30 31  1  0
 32 31  1  0
 33 29  1  0
 33 32  2  0
 34 33  1  0
 35 34  1  0
 36 34  1  0
 37 40  1  0
 38 37  1  0
 39 37  1  0
 40 41  1  0
 40 42  1  0
 40 43  1  0
M  END
>  <minimizedAffinity>  (355) 
-8.86104107

$$$$

     RDKit          3D

 36 39  0  0  1  0  0  0  0  0999 V2000
  -14.6210  -15.4190   35.2950 N   0  0  0  0  0  4  0  0  0  0  0  0
  -15.4400  -15.8950   35.5640 H   0  0  0  0  0  0  0  0  0  0  0  0
  -17.6050  -15.4780   35.1920 O   0  0  0  0  0  0  0  0  0  0  0  0
  -17.3660  -14.3790   34.1980 C   0  0  0  0  0  0  0  0  0  0  0  0
  -18.4230  -13.6230   33.4500 N   0  0  0  0  0  0  0  0  0  0  0  0
  -17.7370  -12.6210   32.5680 C   0  0  0  0  0  0  0  0  0  0  0  0
  -18.2700  -11.6010   31.6050 C   0  0  0  0  0  0  0  0  0  0  0  0
  -17.3230  -10.7190   30.8470 C   0  0  0  0  0  0  0  0  0  0  0  0
  -15.8430  -10.8570   31.0510 C   0  0  0  0  0  0  0  0  0  0  0  0
  -15.3110  -11.8770   32.0130 C   0  0  0  0  0  0  0  0  0  0  0  0
  -16.2580  -12.7590   32.7720 C   0  0  0  0  0  0  0  0  0  0  0  0
  -16.0280  -13.8460   33.7800 C   0  0  0  0  0  3  0  0  0  0  0  0
  -14.6950  -14.3160   34.2810 C   0  0  0  0  0  0  0  0  0  0  0  0
  -19.3950  -13.7590   33.5240 H   0  0  0  0  0  0  0  0  0  0  0  0
  -19.2880  -11.5060   31.4650 H   0  0  0  0  0  0  0  0  0  0  0  0
  -17.6890  -10.0170   30.1850 H   0  0  0  0  0  0  0  0  0  0  0  0
  -15.1910  -10.2500   30.5290 H   0  0  0  0  0  0  0  0  0  0  0  0
  -14.2930  -11.9720   32.1540 H   0  0  0  0  0  0  0  0  0  0  0  0
  -13.8280  -13.8820   33.9280 H   0  0  0  0  0  0  0  0  0  0  0  0
  -13.3010  -15.7970   35.8980 C   0  0  0  0  0  0  0  0  0  0  0  0
  -13.2560  -16.6700   37.1170 C   0  0  0  0  0  0  0  0  0  0  0  0
  -11.9360  -17.0480   37.7200 C   0  0  0  0  0  0  0  0  0  0  0  0
  -10.6600  -16.5520   37.1060 C   0  0  0  0  0  0  0  0  0  0  0  0
  -10.7050  -15.6780   35.8870 C   0  0  0  0  0  0  0  0  0  0  0  0
  -12.0260  -15.3010   35.2830 C   0  0  0  0  0  0  0  0  0  0  0  0
  -14.1330  -17.0110   37.5400 H   0  0  0  0  0  0  0  0  0  0  0  0
  -11.9050  -17.6490   38.5590 H   0  0  0  0  0  0  0  0  0  0  0  0
   -9.8280  -15.3380   35.4640 H   0  0  0  0  0  0  0  0  0  0  0  0
  -12.0570  -14.6990   34.4450 H   0  0  0  0  0  0  0  0  0  0  0  0
   -9.3400  -16.9300   37.7090 N   0  0  0  0  0  0  0  0  0  0  0  0
   -8.2250  -15.9880   38.0500 C   0  0  0  0  0  3  0  0  0  0  0  0
   -7.0990  -16.7920   38.6290 N   0  0  0  0  0  0  0  0  0  0  0  0
   -7.5190  -18.2310   38.6450 C   0  0  0  0  0  0  0  0  0  0  0  0
   -8.9040  -18.3170   38.0770 N   0  0  0  0  0  2  0  0  0  0  0  0
   -8.2310  -14.9650   37.9100 H   0  0  0  0  0  0  0  0  0  0  0  0
   -6.9530  -19.0240   38.9880 H   0  0  0  0  0  0  0  0  0  0  0  0
  1  2  1  0
  1 20  1  0
  4  3  2  0
  5 14  1  0
  5  4  1  0
  6 11  1  0
  6  5  1  0
  7  6  2  0
  8  9  2  0
  8  7  1  0
  9 10  1  0
 10 18  1  0
 10 11  2  0
 11 12  1  0
 12  4  1  0
 12 13  1  0
 13  1  2  0
 15  7  1  0
 16  8  1  0
 17  9  1  0
 19 13  1  0
 20 21  1  0
 21 26  1  0
 21 22  2  0
 22 27  1  0
 23 30  1  0
 23 22  1  0
 24 23  2  0
 25 24  1  0
 25 20  2  0
 28 24  1  0
 29 25  1  0
 30 31  1  0
 30 34  1  0
 31 32  1  0
 32 33  2  0
 33 36  1  0
 34 33  1  0
 35 31  1  0
M  END
>  <minimizedAffinity>  (356) 
-8.03694439

$$$$

     RDKit          3D

 51 45  0  0  0  0  0  0  0  0999 V2000
  -14.5320  -13.7950   33.1440 C   0  0  0  0  0  2  0  0  0  0  0  0
  -15.4330  -13.3130   32.0450 O   0  0  0  0  0  1  0  0  0  0  0  0
  -15.1200  -14.3850   34.3910 N   0  0  0  0  0  0  0  0  0  0  0  0
  -16.6080  -14.4920   34.5400 C   0  0  0  0  0  0  0  0  0  0  0  0
  -17.6290  -14.0550   33.5330 N   0  0  0  0  0  0  0  0  0  0  0  0
  -18.9900  -14.3480   34.0920 N   0  0  0  0  0  0  0  0  0  0  0  0
  -18.8090  -14.9670   35.4470 C   0  0  0  0  0  0  0  0  0  0  0  0
  -19.7940  -15.4610   36.4650 N   0  0  0  0  0  0  0  0  0  0  0  0
  -19.3080  -16.0440   37.7580 N   0  0  0  0  0  0  0  0  0  0  0  0
  -17.8370  -16.1330   38.0350 C   0  0  0  0  0  0  0  0  0  0  0  0
  -16.8510  -15.6390   37.0180 C   0  0  0  0  0  0  0  0  0  0  0  0
  -17.3370  -15.0560   35.7240 C   0  0  0  0  0  0  0  0  0  0  0  0
  -14.5280  -14.7010   35.1120 H   0  0  0  0  0  0  0  0  0  0  0  0
  -19.8500  -14.1660   33.6490 H   0  0  0  0  0  0  0  0  0  0  0  0
  -15.8390  -15.7000   37.2080 H   0  0  0  0  0  0  0  0  0  0  0  0
  -17.3500  -16.7160   39.3290 C   0  0  0  0  0  0  0  0  0  0  0  0
  -18.0660  -17.8830   39.9410 C   0  0  0  0  0  0  0  0  0  0  0  0
  -17.5800  -18.4660   41.2350 C   0  0  0  0  0  0  0  0  0  0  0  0
  -16.3780  -17.8820   41.9160 C   0  0  0  0  0  0  0  0  0  0  0  0
  -15.6630  -16.7140   41.3040 C   0  0  0  0  0  0  0  0  0  0  0  0
  -14.4610  -16.1300   41.9850 F   0  0  0  0  0  0  0  0  0  0  0  0
  -16.1490  -16.1310   40.0100 C   0  0  0  0  0  0  0  0  0  0  0  0
  -15.4330  -14.9640   39.3980 F   0  0  0  0  0  0  0  0  0  0  0  0
  -18.8930  -18.2850   39.4720 H   0  0  0  0  0  0  0  0  0  0  0  0
  -18.0720  -19.2700   41.6560 H   0  0  0  0  0  0  0  0  0  0  0  0
  -16.0440  -18.2830   42.8060 H   0  0  0  0  0  0  0  0  0  0  0  0
  -13.0420  -13.6870   32.9940 C   0  0  0  0  0  2  0  0  0  0  0  0
  -12.6250  -13.0120   32.2770 H   0  0  0  0  0  0  0  0  0  0  0  0
  -13.6870  -13.0890   32.3840 H   0  0  0  0  0  0  0  0  0  0  0  0
  -10.3350  -16.2050   35.5600 N   0  0  0  0  0 15  0  0  0  0  0  0
  -10.0740  -16.0840   34.0880 C   0  0  0  0  0  2  0  0  0  0  0  0
  -10.9770  -15.2450   33.2330 C   0  0  0  0  0  2  0  0  0  0  0  0
  -12.1410  -14.5260   33.8500 C   0  0  0  0  0  1  0  0  0  0  0  0
  -12.4010  -14.6480   35.3210 C   0  0  0  0  0  2  0  0  0  0  0  0
  -11.4990  -15.4870   36.1760 C   0  0  0  0  0  2  0  0  0  0  0  0
   -9.2440  -16.5960   33.6480 H   0  0  0  0  0  0  0  0  0  0  0  0
   -9.8880  -15.9970   33.0380 H   0  0  0  0  0  0  0  0  0  0  0  0
  -10.7910  -15.1580   32.1830 H   0  0  0  0  0  0  0  0  0  0  0  0
  -11.6200  -14.6460   32.6220 H   0  0  0  0  0  0  0  0  0  0  0  0
  -12.9700  -14.0140   34.2890 H   0  0  0  0  0  0  0  0  0  0  0  0
  -13.2320  -14.1350   35.7620 H   0  0  0  0  0  0  0  0  0  0  0  0
  -12.5870  -14.7340   36.3710 H   0  0  0  0  0  0  0  0  0  0  0  0
  -11.6850  -15.5730   37.2270 H   0  0  0  0  0  0  0  0  0  0  0  0
  -10.8550  -16.0860   36.7870 H   0  0  0  0  0  0  0  0  0  0  0  0
   -9.4330  -17.0440   36.4150 C   0  0  0  0  0  3  0  0  0  0  0  0
   -9.3110  -18.0860   36.2020 H   0  0  0  0  0  0  0  0  0  0  0  0
   -9.9550  -17.4870   35.5920 H   0  0  0  0  0  0  0  0  0  0  0  0
   -8.7020  -16.4230   37.5680 C   0  0  0  0  0  0  0  0  0  0  0  0
   -8.8240  -15.3810   37.7810 H   0  0  0  0  0  0  0  0  0  0  0  0
   -8.0580  -17.0220   38.1780 H   0  0  0  0  0  0  0  0  0  0  0  0
   -8.1800  -15.9810   38.3900 H   0  0  0  0  0  0  0  0  0  0  0  0
  1  3  1  0
  2  1  1  0
  3  4  1  0
  3 13  1  0
  4 12  1  0
  5  6  1  0
  5  4  2  0
  6  7  1  0
  7 12  2  0
  7  8  1  0
  8  9  2  0
  9 10  1  0
 10 16  1  0
 11 15  1  0
 11 10  2  0
 12 11  1  0
 14  6  1  0
 16 17  2  0
 16 22  1  0
 17 18  1  0
 18 25  1  0
 18 19  2  0
 19 26  1  0
 20 19  1  0
 20 21  1  0
 22 20  2  0
 23 22  1  0
 24 17  1  0
 28 27  1  0
 29 27  1  0
 33 40  1  0
 34 41  1  0
 34 42  1  0
 35 44  1  0
 35 43  1  0
 36 31  1  0
 37 31  1  0
 38 32  1  0
 39 32  1  0
 45 48  1  0
 46 45  1  0
 47 45  1  0
 48 49  1  0
 48 50  1  0
 48 51  1  0
M  END
>  <minimizedAffinity>  (357) 
-11.4850378

$$$$

     RDKit          3D

 45 48  0  0  1  0  0  0  0  0999 V2000
  -16.2800  -13.8070   33.6360 N   0  0  0  0  0  0  0  0  0  0  0  0
  -14.8370  -14.1480   33.8670 N   0  0  0  0  0  0  0  0  0  0  0  0
  -14.7550  -15.0130   35.0890 C   0  0  0  0  0  0  0  0  0  0  0  0
  -16.1470  -15.2060   35.6150 C   0  0  0  0  0  0  0  0  0  0  0  0
  -16.6790  -15.9640   36.7950 C   0  0  0  0  0  3  0  0  0  0  0  0
  -18.1520  -15.9770   37.0770 N   0  0  0  0  0  0  0  0  0  0  0  0
  -19.0940  -15.2310   36.1790 C   0  0  0  0  0  0  0  0  0  0  0  0
  -18.5630  -14.4730   34.9980 N   0  0  0  0  0  2  0  0  0  0  0  0
  -17.0890  -14.4610   34.7170 C   0  0  0  0  0  0  0  0  0  0  0  0
  -13.8930  -15.4060   35.4980 H   0  0  0  0  0  0  0  0  0  0  0  0
  -20.1080  -15.2400   36.3730 H   0  0  0  0  0  0  0  0  0  0  0  0
  -18.3790  -12.6770   30.4630 C   0  0  0  0  0  0  0  0  0  0  0  0
  -17.8950  -11.2690   30.2900 C   0  0  0  0  0  0  0  0  0  0  0  0
  -16.8730  -10.7050   31.2320 C   0  0  0  0  0  0  0  0  0  0  0  0
  -16.3340  -11.5520   32.3470 C   0  0  0  0  0  0  0  0  0  0  0  0
  -16.8190  -12.9610   32.5210 C   0  0  0  0  0  0  0  0  0  0  0  0
  -17.8410  -13.5240   31.5790 C   0  0  0  0  0  0  0  0  0  0  0  0
  -18.2660  -10.6860   29.5230 H   0  0  0  0  0  0  0  0  0  0  0  0
  -16.5400   -9.7360   31.1130 H   0  0  0  0  0  0  0  0  0  0  0  0
  -15.6310  -11.1640   32.9950 H   0  0  0  0  0  0  0  0  0  0  0  0
  -18.1740  -14.4930   31.6980 H   0  0  0  0  0  0  0  0  0  0  0  0
  -19.4020  -13.2410   29.5210 O   0  0  0  0  0  0  0  0  0  0  0  0
  -19.0100  -13.6070   28.1200 C   0  0  0  0  0  0  0  0  0  0  0  0
  -18.0010  -13.4650   27.7930 H   0  0  0  0  0  0  0  0  0  0  0  0
  -19.7390  -14.0080   27.4480 H   0  0  0  0  0  0  0  0  0  0  0  0
  -18.7310  -13.8670   27.1210 H   0  0  0  0  0  0  0  0  0  0  0  0
  -15.7360  -16.7090   37.6940 N   0  0  0  0  0  0  0  0  0  0  0  0
  -16.0570  -17.4830   38.2100 H   0  0  0  0  0  0  0  0  0  0  0  0
  -14.3050  -16.2740   37.8060 N   0  0  0  0  0  0  0  0  0  0  0  0
  -13.2020  -17.2350   37.4760 C   0  0  0  0  0  0  0  0  0  0  0  0
  -13.4270  -18.1960   37.1730 H   0  0  0  0  0  0  0  0  0  0  0  0
  -11.7700  -16.8010   37.5880 C   0  0  0  0  0  0  0  0  0  0  0  0
  -11.1110  -16.7280   38.9340 C   0  0  0  0  0  0  0  0  0  0  0  0
   -9.6800  -16.2940   39.0460 C   0  0  0  0  0  0  0  0  0  0  0  0
   -8.9080  -15.9320   37.8120 C   0  0  0  0  0  0  0  0  0  0  0  0
   -9.5670  -16.0040   36.4660 C   0  0  0  0  0  0  0  0  0  0  0  0
  -10.9980  -16.4390   36.3540 C   0  0  0  0  0  0  0  0  0  0  0  0
  -11.6430  -16.9770   39.7830 H   0  0  0  0  0  0  0  0  0  0  0  0
   -9.2270  -16.2440   39.9720 H   0  0  0  0  0  0  0  0  0  0  0  0
   -9.0350  -15.7550   35.6170 H   0  0  0  0  0  0  0  0  0  0  0  0
  -11.4510  -16.4890   35.4280 H   0  0  0  0  0  0  0  0  0  0  0  0
   -7.4760  -15.4970   37.9240 C   0  0  0  0  0  0  0  0  0  0  0  0
   -7.0060  -15.4450   38.8840 H   0  0  0  0  0  0  0  0  0  0  0  0
   -6.9250  -15.2390   37.0430 H   0  0  0  0  0  0  0  0  0  0  0  0
   -6.4550  -15.1870   38.0030 H   0  0  0  0  0  0  0  0  0  0  0  0
  1  2  1  0
  1  9  1  0
  2  3  2  0
  3 10  1  0
  3  4  1  0
  4  5  1  0
  5  6  1  0
  5 27  1  0
  7 11  1  0
  7  6  2  0
  8  7  1  0
  9  8  1  0
  9  4  2  0
 12 17  1  0
 13 12  2  0
 13 14  1  0
 14 15  2  0
 15 16  1  0
 15 20  1  0
 16  1  1  0
 17 21  1  0
 17 16  2  0
 18 13  1  0
 19 14  1  0
 22 12  1  0
 23 22  1  0
 24 23  1  0
 25 23  1  0
 26 23  1  0
 27 29  1  0
 27 28  1  0
 30 32  1  0
 30 29  2  0
 31 30  1  0
 32 33  1  0
 33 34  2  0
 33 38  1  0
 34 39  1  0
 35 42  1  0
 35 34  1  0
 36 35  2  0
 37 36  1  0
 37 32  2  0
 40 36  1  0
 41 37  1  0
 42 45  1  0
 42 43  1  0
 44 42  1  0
M  END
>  <minimizedAffinity>  (358) 
-7.99881124

$$$$

     RDKit          3D

 33 35  0  0  0  0  0  0  0  0999 V2000
  -17.0890  -16.3450   35.7670 O   0  0  0  0  0  0  0  0  0  0  0  0
  -16.4120  -16.5820   37.0850 C   0  0  0  0  0  0  0  0  0  0  0  0
  -16.6910  -17.7150   38.0280 N   0  0  0  0  0  0  0  0  0  0  0  0
  -15.7880  -17.5610   39.2160 C   0  0  0  0  0  0  0  0  0  0  0  0
  -15.7310  -18.4750   40.4040 O   0  0  0  0  0  0  0  0  0  0  0  0
  -14.9520  -16.3340   39.0070 C   0  0  0  0  0  0  0  0  0  0  0  0
  -15.3380  -15.7290   37.6900 C   0  0  0  0  0  0  0  0  0  0  0  0
  -17.3500  -18.4330   37.8900 H   0  0  0  0  0  0  0  0  0  0  0  0
  -13.9130  -15.8040   39.9500 C   0  0  0  0  0  0  0  0  0  0  0  0
  -14.3060  -14.8540   41.0430 C   0  0  0  0  0  0  0  0  0  0  0  0
  -13.2660  -14.3240   41.9860 C   0  0  0  0  0  0  0  0  0  0  0  0
  -11.8340  -14.7450   41.8360 C   0  0  0  0  0  0  0  0  0  0  0  0
  -11.4410  -15.6950   40.7440 C   0  0  0  0  0  0  0  0  0  0  0  0
  -12.4810  -16.2240   39.8010 C   0  0  0  0  0  0  0  0  0  0  0  0
  -12.0880  -17.1740   38.7090 Cl  0  0  0  0  0  0  0  0  0  0  0  0
  -15.2910  -14.5650   41.1450 H   0  0  0  0  0  0  0  0  0  0  0  0
  -13.5370  -13.6710   42.7370 H   0  0  0  0  0  0  0  0  0  0  0  0
  -11.1190  -14.3800   42.4850 H   0  0  0  0  0  0  0  0  0  0  0  0
  -10.4560  -15.9840   40.6410 H   0  0  0  0  0  0  0  0  0  0  0  0
  -14.7520  -14.4880   37.0850 N   0  0  0  0  0  0  0  0  0  0  0  0
  -14.9360  -13.6090   37.4870 H   0  0  0  0  0  0  0  0  0  0  0  0
  -13.8840  -14.5850   35.8650 C   0  0  0  0  0  0  0  0  0  0  0  0
  -12.5380  -15.2420   35.9520 C   0  0  0  0  0  0  0  0  0  0  0  0
  -11.6700  -15.3390   34.7330 C   0  0  0  0  0  0  0  0  0  0  0  0
  -10.3240  -15.9960   34.8200 Cl  0  0  0  0  0  0  0  0  0  0  0  0
  -12.1490  -14.7810   33.4250 C   0  0  0  0  0  0  0  0  0  0  0  0
  -13.4940  -14.1240   33.3380 C   0  0  0  0  0  0  0  0  0  0  0  0
  -13.9730  -13.5660   32.0300 Cl  0  0  0  0  0  0  0  0  0  0  0  0
  -14.3620  -14.0270   34.5570 C   0  0  0  0  0  0  0  0  0  0  0  0
  -12.2080  -15.6260   36.8520 H   0  0  0  0  0  0  0  0  0  0  0  0
  -15.2880  -13.5750   34.4970 H   0  0  0  0  0  0  0  0  0  0  0  0
  -11.2810  -14.8780   32.2050 O   0  0  0  0  0  0  0  0  0  0  0  0
  -10.4400  -15.2880   32.2610 H   0  0  0  0  0  0  0  0  0  0  0  0
  1  2  2  0
  2  7  1  0
  2  3  1  0
  3  4  1  0
  4  5  2  0
  6  4  1  0
  6  9  1  0
  7  6  2  0
  8  3  1  0
  9 10  1  0
 10 16  1  0
 10 11  2  0
 11 17  1  0
 12 11  1  0
 12 18  1  0
 13 12  2  0
 14  9  2  0
 14 13  1  0
 15 14  1  0
 19 13  1  0
 20 21  1  0
 20  7  1  0
 22 23  1  0
 22 20  1  0
 23 30  1  0
 24 25  1  0
 24 23  2  0
 26 24  1  0
 27 26  2  0
 27 29  1  0
 28 27  1  0
 29 22  2  0
 31 29  1  0
 32 33  1  0
 32 26  1  0
M  END
>  <minimizedAffinity>  (359) 
-8.99688435

$$$$

     RDKit          3D

 56 52  0  0  0  0  0  0  0  0999 V2000
  -16.6000  -15.4230   35.7940 C   0  0  0  0  0  0  0  0  0  0  0  0
  -15.1480  -15.7800   35.9090 C   0  0  0  0  0  3  0  0  0  0  0  0
  -14.1400  -15.1150   35.0200 C   0  0  0  0  0  1  0  0  0  0  0  0
  -14.5830  -14.0920   34.0170 C   0  0  0  0  0  1  0  0  0  0  0  0
  -16.0350  -13.7350   33.9020 C   0  0  0  0  0 15  0  0  0  0  0  0
  -17.0440  -14.4000   34.7910 N   0  0  0  0  0  2  0  0  0  0  0  0
  -14.8320  -16.5100   36.6250 H   0  0  0  0  0  0  0  0  0  0  0  0
  -14.1120  -16.0360   35.9910 H   0  0  0  0  0  0  0  0  0  0  0  0
  -13.4200  -14.6400   34.3860 H   0  0  0  0  0  0  0  0  0  0  0  0
  -13.8640  -13.6170   33.3830 H   0  0  0  0  0  0  0  0  0  0  0  0
  -14.9000  -13.3620   33.3010 H   0  0  0  0  0  0  0  0  0  0  0  0
  -18.0310  -14.1570   34.7130 H   0  0  0  0  0  0  0  0  0  0  0  0
  -12.6870  -15.4720   35.1350 N   0  0  0  0  0  0  0  0  0  0  0  0
  -11.6530  -15.3140   34.0610 C   0  0  0  0  0  0  0  0  0  0  0  0
  -10.3410  -15.7950   34.6060 N   0  0  0  0  0  2  0  0  0  0  0  0
  -10.5640  -16.2500   36.0180 C   0  0  0  0  0  0  0  0  0  0  0  0
  -12.0140  -16.0510   36.3450 C   0  0  0  0  0  0  0  0  0  0  0  0
  -11.8150  -14.9400   33.1120 H   0  0  0  0  0  0  0  0  0  0  0  0
   -9.5210  -16.8070   36.9400 C   0  0  0  0  0  0  0  0  0  0  0  0
   -8.6090  -15.8790   37.6890 C   0  0  0  0  0  0  0  0  0  0  0  0
   -7.5660  -16.4370   38.6110 C   0  0  0  0  0  0  0  0  0  0  0  0
   -7.4340  -17.9200   38.7850 C   0  0  0  0  0  0  0  0  0  0  0  0
   -6.3900  -18.4770   39.7080 F   0  0  0  0  0  0  0  0  0  0  0  0
   -8.3450  -18.8480   38.0370 C   0  0  0  0  0  0  0  0  0  0  0  0
   -9.3880  -18.2910   37.1140 C   0  0  0  0  0  0  0  0  0  0  0  0
   -8.7010  -14.8590   37.5690 H   0  0  0  0  0  0  0  0  0  0  0  0
   -6.9390  -15.7980   39.1260 H   0  0  0  0  0  0  0  0  0  0  0  0
   -8.2540  -19.8680   38.1570 H   0  0  0  0  0  0  0  0  0  0  0  0
  -10.0150  -18.9290   36.5990 H   0  0  0  0  0  0  0  0  0  0  0  0
  -12.6760  -16.3730   37.6510 C   0  0  0  0  0  0  0  0  0  0  0  0
  -12.5920  -15.4060   38.7940 C   0  0  0  0  0  0  0  0  0  0  0  0
  -13.2550  -15.7290   40.1010 C   0  0  0  0  0  0  0  0  0  0  0  0
  -14.0010  -17.0200   40.2640 N   0  0  0  0  0  0  0  0  0  0  0  0
  -14.0850  -17.9870   39.1210 C   0  0  0  0  0  0  0  0  0  0  0  0
  -14.8320  -19.2790   39.2850 N   0  0  0  0  0  0  0  0  0  0  0  0
  -13.4230  -17.6650   37.8150 N   0  0  0  0  0  0  0  0  0  0  0  0
  -12.0790  -14.5180   38.6820 H   0  0  0  0  0  0  0  0  0  0  0  0
  -13.1970  -15.0630   40.8870 H   0  0  0  0  0  0  0  0  0  0  0  0
  -15.2660  -19.4900   40.1420 H   0  0  0  0  0  0  0  0  0  0  0  0
  -14.8870  -19.9140   38.5340 H   0  0  0  0  0  0  0  0  0  0  0  0
  -18.0770  -15.4210   36.0600 C   0  0  0  0  0  0  0  0  0  0  0  0
  -18.4860  -16.0610   36.8130 H   0  0  0  0  0  0  0  0  0  0  0  0
  -18.7210  -14.7780   35.4960 H   0  0  0  0  0  0  0  0  0  0  0  0
  -19.1300  -15.4190   36.2490 H   0  0  0  0  0  0  0  0  0  0  0  0
  -16.6700  -16.4450   36.8900 C   0  0  0  0  0  0  0  0  0  0  0  0
  -15.7750  -16.9220   37.2330 H   0  0  0  0  0  0  0  0  0  0  0  0
  -17.6130  -16.6970   37.3280 H   0  0  0  0  0  0  0  0  0  0  0  0
  -16.7190  -17.1740   37.6720 H   0  0  0  0  0  0  0  0  0  0  0  0
  -15.4620  -12.8370   32.8460 C   0  0  0  0  0  0  0  0  0  0  0  0
  -16.1060  -12.1950   32.2820 H   0  0  0  0  0  0  0  0  0  0  0  0
  -14.4090  -12.8390   32.6570 H   0  0  0  0  0  0  0  0  0  0  0  0
  -15.0530  -12.1960   32.0930 H   0  0  0  0  0  0  0  0  0  0  0  0
  -17.2890  -13.0660   33.4210 C   0  0  0  0  0  3  0  0  0  0  0  0
  -18.2320  -13.3170   33.8590 H   0  0  0  0  0  0  0  0  0  0  0  0
  -17.2390  -12.3370   32.6390 H   0  0  0  0  0  0  0  0  0  0  0  0
  -18.1820  -12.5880   33.0770 H   0  0  0  0  0  0  0  0  0  0  0  0
  1  2  1  0
  1 41  1  0
  1 45  1  0
  2  8  1  0
  2  7  1  0
  6  1  1  0
  9  3  1  0
 10  4  1  0
 12  6  1  0
 13 17  1  0
 14 15  1  0
 14 13  2  0
 15 16  1  0
 16 17  2  0
 16 19  1  0
 17 30  1  0
 18 14  1  0
 19 25  2  0
 19 20  1  0
 20 21  2  0
 21 22  1  0
 21 27  1  0
 22 23  1  0
 24 28  1  0
 24 22  2  0
 25 24  1  0
 26 20  1  0
 29 25  1  0
 30 36  2  0
 30 31  1  0
 31 32  2  0
 32 33  1  0
 32 38  1  0
 34 35  1  0
 34 33  2  0
 35 39  1  0
 36 34  1  0
 37 31  1  0
 40 35  1  0
 41 44  1  0
 41 42  1  0
 43 41  1  0
 45 46  1  0
 45 47  1  0
 45 48  1  0
 49 11  1  0
 50 49  1  0
 51 49  1  0
 52 49  1  0
 53 54  1  0
 55 53  1  0
 56 53  1  0
M  END
>  <minimizedAffinity>  (360) 
-10.007658

$$$$

     RDKit          3D

 36 35  0  0  0  0  0  0  0  0999 V2000
  -16.8270  -13.7860   33.7940 O   0  0  0  0  0  1  0  0  0  0  0  0
  -15.6380  -13.3610   32.9850 C   0  0  0  0  0  2  0  0  0  0  0  0
  -14.2590  -13.7750   33.4040 N   0  0  0  0  0  0  0  0  0  0  0  0
  -14.0690  -14.6140   34.6320 C   0  0  0  0  0  0  0  0  0  0  0  0
  -15.1560  -15.1130   35.5370 N   0  0  0  0  0  0  0  0  0  0  0  0
  -14.5180  -15.9090   36.6360 N   0  0  0  0  0  0  0  0  0  0  0  0
  -13.0340  -15.9030   36.4100 C   0  0  0  0  0  0  0  0  0  0  0  0
  -11.9000  -16.5220   37.1730 C   0  0  0  0  0  0  0  0  0  0  0  0
  -10.4890  -16.3410   36.6970 C   0  0  0  0  0  0  0  0  0  0  0  0
  -10.2120  -15.5400   35.4590 C   0  0  0  0  0  0  0  0  0  0  0  0
  -11.3460  -14.9210   34.6970 C   0  0  0  0  0  0  0  0  0  0  0  0
  -12.7570  -15.1020   35.1720 C   0  0  0  0  0  0  0  0  0  0  0  0
  -13.4780  -13.4950   32.8730 H   0  0  0  0  0  0  0  0  0  0  0  0
  -14.9880  -16.3580   37.3750 H   0  0  0  0  0  0  0  0  0  0  0  0
  -12.0910  -17.0730   38.0240 H   0  0  0  0  0  0  0  0  0  0  0  0
   -9.2410  -15.4160   35.1320 H   0  0  0  0  0  0  0  0  0  0  0  0
  -11.1550  -14.3700   33.8450 H   0  0  0  0  0  0  0  0  0  0  0  0
   -9.3560  -16.9600   37.4590 C   0  0  0  0  0  0  0  0  0  0  0  0
   -9.2560  -18.4520   37.5740 C   0  0  0  0  0  0  0  0  0  0  0  0
   -8.1220  -19.0720   38.3370 C   0  0  0  0  0  0  0  0  0  0  0  0
   -7.0880  -18.1990   38.9840 C   0  0  0  0  0  0  0  0  0  0  0  0
   -7.1880  -16.7070   38.8690 C   0  0  0  0  0  0  0  0  0  0  0  0
   -8.3220  -16.0870   38.1060 C   0  0  0  0  0  0  0  0  0  0  0  0
   -9.9680  -19.0530   37.1290 H   0  0  0  0  0  0  0  0  0  0  0  0
   -8.0540  -20.0980   38.4160 H   0  0  0  0  0  0  0  0  0  0  0  0
   -6.3080  -18.6250   39.5080 H   0  0  0  0  0  0  0  0  0  0  0  0
   -6.4760  -16.1060   39.3140 H   0  0  0  0  0  0  0  0  0  0  0  0
   -8.3900  -15.0600   38.0270 H   0  0  0  0  0  0  0  0  0  0  0  0
  -15.8280  -12.5210   31.7560 C   0  0  0  0  0 15  0  0  0  0  0  0
  -16.1320  -12.4120   30.2910 C   0  0  0  0  0  3  0  0  0  0  0  0
  -15.8550  -11.1750   31.0940 C   0  0  0  0  0  2  0  0  0  0  0  0
  -15.9640  -11.9220   30.8800 H   0  0  0  0  0  0  0  0  0  0  0  0
  -16.3720  -12.8760   29.3580 H   0  0  0  0  0  0  0  0  0  0  0  0
  -16.2120  -11.6050   29.5930 H   0  0  0  0  0  0  0  0  0  0  0  0
  -15.7510  -10.1120   31.1520 H   0  0  0  0  0  0  0  0  0  0  0  0
  -15.6180  -10.9760   32.1180 H   0  0  0  0  0  0  0  0  0  0  0  0
  2  3  1  0
  2  1  1  0
  3  4  1  0
  4 12  1  0
  4  5  2  0
  5  6  1  0
  6 14  1  0
  7  6  1  0
  7  8  1  0
  8 15  1  0
  9  8  2  0
  9 18  1  0
 10  9  1  0
 11 12  1  0
 11 10  2  0
 12  7  2  0
 13  3  1  0
 16 10  1  0
 17 11  1  0
 18 19  2  0
 18 23  1  0
 19 20  1  0
 20 25  1  0
 20 21  2  0
 21 26  1  0
 22 21  1  0
 22 27  1  0
 23 22  2  0
 24 19  1  0
 28 23  1  0
 30 32  1  0
 31 35  1  0
 31 36  1  0
 33 30  1  0
 34 30  1  0
M  END
>  <minimizedAffinity>  (361) 
-9.39176655

$$$$

     RDKit          3D

 54 57  0  0  0  0  0  0  0  0999 V2000
  -16.2800  -14.5130   34.6230 C   0  0  0  0  0  0  0  0  0  0  0  0
  -14.9130  -14.4550   34.0090 S   0  0  0  0  0  0  0  0  0  0  0  0
  -14.0080  -15.3440   34.8100 C   0  0  0  0  0  0  0  0  0  0  0  0
  -14.8160  -15.9490   35.9190 C   0  0  0  0  0  0  0  0  0  0  0  0
  -16.2210  -15.4360   35.8030 C   0  0  0  0  0  0  0  0  0  0  0  0
  -14.4670  -16.6050   36.6360 H   0  0  0  0  0  0  0  0  0  0  0  0
  -12.5510  -15.5830   34.5480 N   0  0  0  0  0  0  0  0  0  0  0  0
  -11.8760  -15.5320   33.2090 C   0  0  0  0  0  0  0  0  0  0  0  0
  -10.4200  -15.8330   33.4120 N   0  0  0  0  0  0  0  0  0  0  0  0
  -10.1960  -16.0700   34.8750 C   0  0  0  0  0  0  0  0  0  0  0  0
   -8.9620  -16.4060   35.6590 C   0  0  0  0  0  0  0  0  0  0  0  0
   -9.0450  -16.5880   37.1460 C   0  0  0  0  0  0  0  0  0  0  0  0
  -10.3610  -16.4340   37.8480 C   0  0  0  0  0  0  0  0  0  0  0  0
  -11.5950  -16.0980   37.0640 C   0  0  0  0  0  0  0  0  0  0  0  0
  -11.5120  -15.9150   35.5780 C   0  0  0  0  0  0  0  0  0  0  0  0
  -12.3330  -15.3260   32.3070 H   0  0  0  0  0  0  0  0  0  0  0  0
   -8.0560  -16.5130   35.1760 H   0  0  0  0  0  0  0  0  0  0  0  0
  -12.5000  -15.9910   37.5470 H   0  0  0  0  0  0  0  0  0  0  0  0
   -7.8110  -16.9250   37.9300 O   0  0  0  0  0  0  0  0  0  0  0  0
   -7.5740  -18.3340   38.3860 C   0  0  0  0  0  0  0  0  0  0  0  0
   -8.2840  -19.0990   38.1520 H   0  0  0  0  0  0  0  0  0  0  0  0
   -6.6930  -18.5740   38.9460 H   0  0  0  0  0  0  0  0  0  0  0  0
   -7.4040  -19.3390   38.7120 H   0  0  0  0  0  0  0  0  0  0  0  0
  -10.4440  -16.6160   39.3350 O   0  0  0  0  0  0  0  0  0  0  0  0
  -11.5450  -15.9560   40.1110 C   0  0  0  0  0  0  0  0  0  0  0  0
  -12.2710  -15.3560   39.6050 H   0  0  0  0  0  0  0  0  0  0  0  0
  -11.6040  -16.0860   41.1720 H   0  0  0  0  0  0  0  0  0  0  0  0
  -12.3300  -15.4850   40.6650 H   0  0  0  0  0  0  0  0  0  0  0  0
  -17.4230  -12.2980   33.8860 N   0  0  0  0  0  0  0  0  0  0  0  0
  -17.4950  -13.7750   34.1410 C   0  0  0  0  0  0  0  0  0  0  0  0
  -18.7800  -14.5140   33.9130 O   0  0  0  0  0  0  0  0  0  0  0  0
  -16.5800  -11.8140   34.0350 H   0  0  0  0  0  0  0  0  0  0  0  0
  -18.6370  -11.5620   33.4040 C   0  0  0  0  0  0  0  0  0  0  0  0
  -18.5860  -10.5090   33.2220 H   0  0  0  0  0  0  0  0  0  0  0  0
  -19.5530  -12.0890   33.2410 H   0  0  0  0  0  0  0  0  0  0  0  0
  -19.5030  -11.0350   33.0590 H   0  0  0  0  0  0  0  0  0  0  0  0
  -17.3640  -15.7850   36.7090 O   0  0  0  0  0  0  0  0  0  0  0  0
  -17.3350  -15.3680   38.1490 C   0  0  0  0  0  0  0  0  0  0  0  0
  -16.9780  -14.3960   38.4180 H   0  0  0  0  0  0  0  0  0  0  0  0
  -17.3140  -15.0710   39.1770 H   0  0  0  0  0  0  0  0  0  0  0  0
  -17.8070  -16.3140   39.2140 C   0  0  0  0  0  0  0  0  0  0  0  0
  -19.2210  -16.2440   39.7070 C   0  0  0  0  0  0  0  0  0  0  0  0
  -19.6930  -17.1900   40.7710 C   0  0  0  0  0  0  0  0  0  0  0  0
  -18.7500  -18.2060   41.3420 C   0  0  0  0  0  0  0  0  0  0  0  0
  -17.3350  -18.2770   40.8490 C   0  0  0  0  0  0  0  0  0  0  0  0
  -16.8630  -17.3310   39.7850 C   0  0  0  0  0  0  0  0  0  0  0  0
  -19.8710  -15.5440   39.3130 H   0  0  0  0  0  0  0  0  0  0  0  0
  -20.6660  -17.1410   41.1100 H   0  0  0  0  0  0  0  0  0  0  0  0
  -19.0740  -18.8570   42.0750 H   0  0  0  0  0  0  0  0  0  0  0  0
  -16.6860  -18.9770   41.2430 H   0  0  0  0  0  0  0  0  0  0  0  0
  -15.4490  -17.4020   39.2920 C   0  0  0  0  0  0  0  0  0  0  0  0
  -14.0330  -17.4730   38.7990 F   0  0  0  0  0  0  0  0  0  0  0  0
  -15.9010  -18.2060   38.1100 F   0  0  0  0  0  0  0  0  0  0  0  0
  -14.9960  -16.5980   40.4750 F   0  0  0  0  0  0  0  0  0  0  0  0
  1  5  2  0
  2  1  1  0
  2  3  1  0
  3  4  2  0
  4  6  1  0
  5  4  1  0
  5 37  1  0
  7  3  1  0
  7 15  1  0
  8  9  2  0
  8  7  1  0
  9 10  1  0
 10 15  2  0
 10 11  1  0
 11 12  2  0
 12 13  1  0
 12 19  1  0
 13 24  1  0
 14 18  1  0
 14 13  2  0
 15 14  1  0
 16  8  1  0
 17 11  1  0
 19 20  1  0
 20 23  1  0
 20 22  1  0
 21 20  1  0
 24 25  1  0
 25 28  1  0
 25 27  1  0
 26 25  1  0
 29 32  1  0
 29 30  1  0
 30  1  1  0
 31 30  2  0
 33 29  1  0
 34 33  1  0
 35 33  1  0
 36 33  1  0
 37 38  1  0
 38 39  1  0
 38 40  1  0
 38 41  1  0
 41 42  2  0
 41 46  1  0
 42 43  1  0
 43 48  1  0
 43 44  2  0
 44 49  1  0
 45 50  1  0
 45 44  1  0
 46 45  2  0
 47 42  1  0
 51 46  1  0
 51 54  1  0
 52 51  1  0
 53 51  1  0
M  END
>  <minimizedAffinity>  (362) 
-8.92836285

$$$$

     RDKit          3D

 51 54  0  0  0  0  0  0  0  0999 V2000
  -13.6490  -14.7790   34.0330 N   0  0  0  0  0  0  0  0  0  0  0  0
  -12.3910  -15.3020   34.6590 C   0  0  0  0  0  0  0  0  0  0  0  0
  -11.0390  -15.3560   34.0110 C   0  0  0  0  0  0  0  0  0  0  0  0
  -10.7090  -14.8960   32.6220 O   0  0  0  0  0  0  0  0  0  0  0  0
  -10.0750  -15.9510   34.9940 N   0  0  0  0  0  0  0  0  0  0  0  0
  -10.8310  -16.2650   36.2510 C   0  0  0  0  0  0  0  0  0  0  0  0
  -10.4020  -16.8640   37.5580 C   0  0  0  0  0  0  0  0  0  0  0  0
  -11.4030  -17.0620   38.6570 C   0  0  0  0  0  0  0  0  0  0  0  0
  -12.8330  -16.6610   38.4500 C   0  0  0  0  0  0  0  0  0  0  0  0
  -13.2630  -16.0620   37.1440 C   0  0  0  0  0  0  0  0  0  0  0  0
  -12.2620  -15.8640   36.0440 C   0  0  0  0  0  0  0  0  0  0  0  0
   -9.1150  -16.1080   34.8420 H   0  0  0  0  0  0  0  0  0  0  0  0
   -9.4180  -17.1390   37.7000 H   0  0  0  0  0  0  0  0  0  0  0  0
  -11.1070  -17.4740   39.5560 H   0  0  0  0  0  0  0  0  0  0  0  0
  -14.2470  -15.7870   37.0010 H   0  0  0  0  0  0  0  0  0  0  0  0
  -13.8340  -16.8590   39.5500 C   0  0  0  0  0  0  0  0  0  0  0  0
  -13.5470  -16.3410   40.9280 O   0  0  0  0  0  0  0  0  0  0  0  0
  -15.1220  -17.5760   39.2710 N   0  0  0  0  0  0  0  0  0  0  0  0
  -15.3110  -17.9150   38.3670 H   0  0  0  0  0  0  0  0  0  0  0  0
  -16.1230  -17.7740   40.3700 C   0  0  0  0  0  0  0  0  0  0  0  0
  -15.7940  -17.8640   41.3840 H   0  0  0  0  0  0  0  0  0  0  0  0
  -16.8380  -17.9150   41.1550 H   0  0  0  0  0  0  0  0  0  0  0  0
  -17.5870  -17.8450   40.0480 C   0  0  0  0  0  0  0  0  0  0  0  0
  -18.2130  -18.5480   40.5580 H   0  0  0  0  0  0  0  0  0  0  0  0
  -18.6310  -17.8960   39.8180 H   0  0  0  0  0  0  0  0  0  0  0  0
  -18.1720  -16.9320   39.0120 C   0  0  0  0  0  0  0  0  0  0  0  0
  -19.5410  -16.3200   39.0480 C   0  0  0  0  0  0  0  0  0  0  0  0
  -19.7070  -15.4810   37.8160 N   0  0  0  0  0  0  0  0  0  0  0  0
  -18.4400  -15.5740   37.0190 C   0  0  0  0  0  0  0  0  0  0  0  0
  -17.4910  -16.4710   37.7570 N   0  0  0  0  0  0  0  0  0  0  0  0
  -20.2450  -16.4530   39.7910 H   0  0  0  0  0  0  0  0  0  0  0  0
  -20.5060  -14.9600   37.5730 H   0  0  0  0  0  0  0  0  0  0  0  0
  -18.2530  -15.1030   36.1180 H   0  0  0  0  0  0  0  0  0  0  0  0
  -13.6240  -14.2460   32.6320 N   0  0  0  0  0  0  0  0  0  0  0  0
  -12.8990  -14.5080   32.0180 H   0  0  0  0  0  0  0  0  0  0  0  0
  -16.8590  -11.4490   31.2300 C   0  0  0  0  0  0  0  0  0  0  0  0
  -16.4200  -11.4290   32.6640 C   0  0  0  0  0  0  0  0  0  0  0  0
  -15.3410  -12.3620   33.1320 C   0  0  0  0  0  0  0  0  0  0  0  0
  -14.7020  -13.3130   32.1640 C   0  0  0  0  0  0  0  0  0  0  0  0
  -15.1400  -13.3330   30.7300 C   0  0  0  0  0  0  0  0  0  0  0  0
  -16.2190  -12.4010   30.2630 C   0  0  0  0  0  0  0  0  0  0  0  0
  -16.8600  -10.7740   33.3300 H   0  0  0  0  0  0  0  0  0  0  0  0
  -15.0400  -12.3480   34.1180 H   0  0  0  0  0  0  0  0  0  0  0  0
  -14.7000  -13.9880   30.0640 H   0  0  0  0  0  0  0  0  0  0  0  0
  -16.5210  -12.4140   29.2760 H   0  0  0  0  0  0  0  0  0  0  0  0
  -17.9360  -10.5170   30.7620 S   0  0  2  0  0  0  0  0  0  0  0  0
  -17.7250  -10.9820   29.3510 O   0  0  0  0  0  0  0  0  0  0  0  0
  -18.1470  -10.0520   32.1720 O   0  0  0  0  0  0  0  0  0  0  0  0
  -19.0140   -9.5850   30.2930 N   0  0  0  0  0  0  0  0  0  0  0  0
  -19.2570   -9.5420   29.3030 H   0  0  0  0  0  0  0  0  0  0  0  0
  -19.5050   -8.9940   30.9650 H   0  0  0  0  0  0  0  0  0  0  0  0
  1  2  2  0
  2 11  1  0
  3  2  1  0
  3  5  1  0
  4  3  2  0
  5  6  1  0
  6  7  1  0
  7 13  1  0
  7  8  2  0
  8 14  1  0
  9  8  1  0
  9 16  1  0
 10  9  2  0
 11  6  2  0
 11 10  1  0
 12  5  1  0
 15 10  1  0
 16 17  2  0
 18 16  1  0
 18 20  1  0
 19 18  1  0
 20 22  1  0
 20 21  1  0
 23 20  1  0
 23 24  1  0
 25 23  1  0
 26 27  2  0
 26 23  1  0
 27 31  1  0
 28 27  1  0
 29 30  2  0
 29 28  1  0
 30 26  1  0
 32 28  1  0
 33 29  1  0
 34  1  1  0
 35 34  1  0
 36 37  1  0
 37 38  2  0
 37 42  1  0
 38 43  1  0
 39 34  1  0
 39 38  1  0
 40 39  2  0
 41 40  1  0
 41 36  2  0
 44 40  1  0
 45 41  1  0
 46 36  1  0
 46 48  2  0
 47 46  2  0
 49 46  1  0
 49 51  1  0
 50 49  1  0
M  END
>  <minimizedAffinity>  (363) 
-9.70907307

$$$$

     RDKit          3D

 65 64  0  0  0  0  0  0  0  0999 V2000
  -15.7420  -16.3290   37.8400 C   0  0  0  0  0  0  0  0  0  0  0  0
  -14.3340  -16.5690   37.3810 C   0  0  0  0  0  0  0  0  0  0  0  0
  -13.6970  -17.5410   38.3290 N   0  0  0  0  0  0  0  0  0  0  0  0
  -14.7110  -17.9020   39.3740 C   0  0  0  0  0  0  0  0  0  0  0  0
  -15.9750  -17.1530   39.0720 N   0  0  0  0  0  0  0  0  0  0  0  0
  -14.5650  -18.5520   40.1620 H   0  0  0  0  0  0  0  0  0  0  0  0
  -17.2480  -17.2170   39.8620 C   0  0  0  0  0  2  0  0  0  0  0  0
  -18.4320  -17.9600   39.3190 C   0  0  0  0  0  2  0  0  0  0  0  0
  -19.7060  -18.0230   40.1090 C   0  0  0  0  0  2  0  0  0  0  0  0
  -19.7940  -17.3420   41.4430 N   0  0  0  0  0  2  0  0  0  0  0  0
  -18.6100  -16.5990   41.9860 C   0  0  0  0  0  3  0  0  0  0  0  0
  -17.3370  -16.5360   41.1960 C   0  0  0  0  0  2  0  0  0  0  0  0
  -18.1560  -17.2610   40.4260 H   0  0  0  0  0  0  0  0  0  0  0  0
  -18.3690  -18.4450   38.3670 H   0  0  0  0  0  0  0  0  0  0  0  0
  -19.2780  -18.4900   38.9310 H   0  0  0  0  0  0  0  0  0  0  0  0
  -20.5500  -18.5530   39.7220 H   0  0  0  0  0  0  0  0  0  0  0  0
  -20.6130  -18.0670   40.6730 H   0  0  0  0  0  0  0  0  0  0  0  0
  -20.6600  -17.3850   41.9800 H   0  0  0  0  0  0  0  0  0  0  0  0
  -18.6740  -16.1140   42.9380 H   0  0  0  0  0  0  0  0  0  0  0  0
  -17.7650  -16.0690   42.3740 H   0  0  0  0  0  0  0  0  0  0  0  0
  -16.4920  -16.0060   41.5830 H   0  0  0  0  0  0  0  0  0  0  0  0
  -16.4290  -16.4920   40.6310 H   0  0  0  0  0  0  0  0  0  0  0  0
  -13.6790  -15.9460   36.1840 C   0  0  0  0  0  0  0  0  0  0  0  0
  -14.4910  -15.6340   34.9620 C   0  0  0  0  0  0  0  0  0  0  0  0
  -13.8360  -15.0110   33.7650 C   0  0  0  0  0  0  0  0  0  0  0  0
  -12.3690  -14.7000   33.7900 C   0  0  0  0  0  0  0  0  0  0  0  0
  -11.7150  -14.0770   32.5930 F   0  0  0  0  0  0  0  0  0  0  0  0
  -11.5570  -15.0120   35.0120 C   0  0  0  0  0  0  0  0  0  0  0  0
  -12.2120  -15.6350   36.2090 C   0  0  0  0  0  0  0  0  0  0  0  0
  -15.5000  -15.8480   34.9450 H   0  0  0  0  0  0  0  0  0  0  0  0
  -14.3950  -14.7970   32.9250 H   0  0  0  0  0  0  0  0  0  0  0  0
  -10.5480  -14.7980   35.0290 H   0  0  0  0  0  0  0  0  0  0  0  0
  -11.6530  -15.8500   37.0490 H   0  0  0  0  0  0  0  0  0  0  0  0
  -18.0730  -14.6980   35.0730 C   0  0  0  0  0  0  0  0  0  0  0  0
  -18.7400  -13.6150   35.8670 N   0  0  0  0  0  0  0  0  0  0  0  0
  -18.4080  -13.4360   37.3190 C   0  0  0  0  0  3  0  0  0  0  0  0
  -17.4090  -14.3410   37.9770 C   0  0  0  0  0  0  0  0  0  0  0  0
  -16.7410  -15.4240   37.1820 C   0  0  0  0  0  0  0  0  0  0  0  0
  -17.0730  -15.6030   35.7300 N   0  0  0  0  0  0  0  0  0  0  0  0
  -18.8680  -12.6910   37.8660 H   0  0  0  0  0  0  0  0  0  0  0  0
  -17.1810  -14.2180   38.9760 H   0  0  0  0  0  0  0  0  0  0  0  0
  -18.4050  -14.8760   33.6210 O   0  0  0  0  0  0  0  0  0  0  0  0
  -17.1550  -11.7570   30.6280 C   0  0  0  0  0  0  0  0  0  0  0  0
  -18.3700  -12.5990   30.3710 C   0  0  0  0  0  0  0  0  0  0  0  0
  -18.7870  -13.6380   31.3690 C   0  0  0  0  0  0  0  0  0  0  0  0
  -17.9880  -13.8370   32.6230 C   0  0  0  0  0  0  0  0  0  0  0  0
  -16.7730  -12.9950   32.8800 C   0  0  0  0  0  0  0  0  0  0  0  0
  -16.3570  -11.9560   31.8820 C   0  0  0  0  0  0  0  0  0  0  0  0
  -18.9200  -12.4620   29.5080 H   0  0  0  0  0  0  0  0  0  0  0  0
  -19.6230  -14.2170   31.1920 H   0  0  0  0  0  0  0  0  0  0  0  0
  -16.2240  -13.1310   33.7430 H   0  0  0  0  0  0  0  0  0  0  0  0
  -15.5210  -11.3770   32.0590 H   0  0  0  0  0  0  0  0  0  0  0  0
  -16.7390  -10.7180   29.6300 C   0  0  0  0  0  0  0  0  0  0  0  0
  -17.6040  -11.3680   28.5910 C   0  0  0  0  0  0  0  0  0  0  0  0
  -18.1700  -12.2420   28.8370 H   0  0  0  0  0  0  0  0  0  0  0  0
  -17.6550  -10.9570   27.6040 H   0  0  0  0  0  0  0  0  0  0  0  0
  -18.2210  -11.8320   27.8500 H   0  0  0  0  0  0  0  0  0  0  0  0
  -15.8730  -10.0680   30.6680 C   0  0  0  0  0  0  0  0  0  0  0  0
  -15.3070   -9.1930   30.4220 H   0  0  0  0  0  0  0  0  0  0  0  0
  -15.8220  -10.4780   31.6560 H   0  0  0  0  0  0  0  0  0  0  0  0
  -15.2560   -9.6040   31.4090 H   0  0  0  0  0  0  0  0  0  0  0  0
  -16.3220   -9.6780   28.6320 C   0  0  0  0  0  0  0  0  0  0  0  0
  -16.7080   -9.7090   27.6340 H   0  0  0  0  0  0  0  0  0  0  0  0
  -15.6390   -8.9060   28.9180 H   0  0  0  0  0  0  0  0  0  0  0  0
  -16.0250   -8.9370   27.9200 H   0  0  0  0  0  0  0  0  0  0  0  0
  1  5  1  0
  2  1  2  0
  2  3  1  0
  3  4  2  0
  4  6  1  0
  5  4  1  0
  5  7  1  0
  7 13  1  0
  9 17  1  0
 10 18  1  0
 10 11  1  0
 11 20  1  0
 11 19  1  0
 12 21  1  0
 14  8  1  0
 15  8  1  0
 16  9  1  0
 22 12  1  0
 23 29  1  0
 23  2  1  0
 24 23  2  0
 25 26  2  0
 25 24  1  0
 26 28  1  0
 27 26  1  0
 28 32  1  0
 28 29  2  0
 29 33  1  0
 30 24  1  0
 31 25  1  0
 34 39  2  0
 34 35  2  0
 35 36  1  0
 36 40  1  0
 36 37  1  0
 37 41  1  0
 38  1  1  0
 38 37  2  0
 39 38  1  0
 42 34  1  0
 43 48  1  0
 44 43  2  0
 44 45  1  0
 45 46  2  0
 46 47  1  0
 46 42  1  0
 47 51  1  0
 48 52  1  0
 48 47  2  0
 49 44  1  0
 50 45  1  0
 53 43  1  0
 53 58  1  0
 54 55  1  0
 54 53  1  0
 56 54  1  0
 57 54  1  0
 58 61  1  0
 58 60  1  0
 59 58  1  0
 62 64  1  0
 62 53  1  0
 63 62  1  0
 65 62  1  0
M  END
>  <minimizedAffinity>  (364) 
-8.548172

$$$$
