REMARK  5 active torsions:
REMARK  status: ('A' for Active; 'I' for Inactive)
REMARK    1  A    between atoms: C2_5  and  C3_7 
REMARK    2  A    between atoms: N3_8  and  C6_13 
REMARK    3  A    between atoms: N6_14  and  C12_23 
REMARK    4  A    between atoms: C11_22  and  C12_23 
REMARK    5  A    between atoms: C12_23  and  C14_25 
ROOT
HETATM    1  N   9JI A1001     -28.369 -27.265  55.271  1.00 72.01    -0.248 N 
HETATM    2  C   9JI A1001     -29.819 -27.118  55.233  1.00 66.98     0.154 C 
HETATM    3  C1  9JI A1001     -26.501 -28.252  55.123  1.00 72.01     0.122 A 
HETATM    4  N1  9JI A1001     -27.802 -28.468  55.011  1.00 75.54    -0.168 NA
HETATM    5  C2  9JI A1001     -26.213 -26.921  55.459  1.00 69.25     0.041 A 
HETATM    6  C25 9JI A1001     -27.456 -26.319  55.543  1.00 72.36     0.097 A 
ENDROOT
BRANCH   5   7
HETATM    7  C3  9JI A1001     -24.881 -26.300  55.650  1.00 67.61     0.024 A 
HETATM    8  C4  9JI A1001     -24.668 -24.981  56.014  1.00 67.33     0.101 A 
HETATM    9  N2  9JI A1001     -23.323 -24.799  56.072  1.00 66.38    -0.224 N 
HETATM   10  C5  9JI A1001     -22.628 -25.946  55.750  1.00 65.38     0.117 A 
HETATM   11  N9  9JI A1001     -22.693 -23.625  56.412  1.00 64.38    -0.142 NA
HETATM   12  C6  9JI A1001     -21.191 -25.900  55.765  1.00 65.83     0.160 A 
HETATM   13  C24 9JI A1001     -23.583 -26.908  55.481  1.00 65.85     0.024 A 
HETATM   14  N8  9JI A1001     -20.565 -24.763  56.100  1.00 66.26    -0.204 NA
HETATM   15  C23 9JI A1001     -21.356 -23.721  56.396  1.00 63.72     0.221 A 
BRANCH  12  16
HETATM   16  N3  9JI A1001     -20.350 -26.932  55.440  1.00 64.66    -0.329 N 
HETATM   17  C7  9JI A1001     -20.629 -28.273  55.961  1.00 65.31     0.128 C 
HETATM   18  C8  9JI A1001     -19.915 -29.315  55.130  1.00 62.87     0.144 C 
HETATM   19  N4  9JI A1001     -18.482 -29.025  55.064  1.00 63.04    -0.179 N 
HETATM   20  C9  9JI A1001     -17.543 -29.865  55.546  1.00 61.39     0.727 A 
HETATM   21  C21 9JI A1001     -18.178 -27.674  54.590  1.00 59.68     0.144 C 
HETATM   22  N5  9JI A1001     -16.269 -29.480  55.417  1.00 62.44    -0.060 NA
HETATM   23  N7  9JI A1001     -17.978 -31.003  56.095  1.00 62.99    -0.060 NA
HETATM   24  C10 9JI A1001     -15.356 -30.333  55.889  1.00 60.58     0.117 A 
HETATM   25  C11 9JI A1001     -15.677 -31.544  56.476  1.00 63.05     0.049 A 
HETATM   26  C20 9JI A1001     -17.029 -31.825  56.553  1.00 61.73     0.117 A 
HETATM   27  C22 9JI A1001     -18.913 -26.640  55.418  1.00 63.15     0.128 C 
BRANCH  25  28
HETATM   28  C12 9JI A1001     -14.598 -32.506  56.983  1.00 63.91     0.225 C 
HETATM   29  C13 9JI A1001     -15.225 -33.848  57.363  1.00 67.06     0.042 C 
BRANCH  28  30
HETATM   30  N6  9JI A1001     -13.654 -32.797  55.894  1.00 67.07     0.098 N 
HETATM   31  H01 9JI A1001     -14.031 -33.528  55.307  1.00 67.07     0.314 HD
HETATM   32  H02 9JI A1001     -13.507 -31.964  55.342  1.00 67.07     0.314 HD
ENDBRANCH  28  30
BRANCH  28  33
HETATM   33  C14 9JI A1001     -13.834 -31.920  58.175  1.00 62.63     0.010 A 
HETATM   34  C15 9JI A1001     -14.519 -31.388  59.261  1.00 62.17     0.000 A 
HETATM   35  C16 9JI A1001     -13.842 -30.844  60.338  1.00 64.23     0.029 A 
HETATM   36  C17 9JI A1001     -12.474 -30.840  60.307  1.00 66.41     0.140 A 
HETATM   37  C18 9JI A1001     -11.753 -31.364  59.268  1.00 62.94     0.029 A 
HETATM   38  F   9JI A1001     -11.803 -30.256  61.336  1.00 67.96    -0.204 F 
HETATM   39  C19 9JI A1001     -12.443 -31.904  58.198  1.00 61.46     0.000 A 
ENDBRANCH  28  33
ENDBRANCH  25  28
ENDBRANCH  12  16
ENDBRANCH   5   7
TORSDOF 5
