
     RDKit          3D

 42 44  0  0  1  0  0  0  0  0999 V2000
  -18.3640  -28.5990   55.7860 N   0  0  0  0  0  0  0  0  0  0  0  0
  -17.8660  -29.9790   55.4720 C   0  0  0  0  0  3  0  0  0  0  0  0
  -18.8340  -31.0520   55.0690 N   0  0  0  0  0  0  0  0  0  0  0  0
  -18.3370  -32.4320   54.7560 C   0  0  0  0  0  0  0  0  0  0  0  0
  -16.8710  -32.7390   54.8450 N   0  0  0  0  0  2  0  0  0  0  0  0
  -15.9030  -31.6660   55.2480 C   0  0  0  0  0  0  0  0  0  0  0  0
  -16.4010  -30.2870   55.5620 C   0  0  0  0  0  0  0  0  0  0  0  0
  -15.2180  -29.4400   55.9290 C   0  0  0  0  0  0  0  0  0  0  0  0
  -13.9900  -30.2960   55.8430 N   0  0  0  0  0  0  0  0  0  0  0  0
  -14.4140  -31.6730   55.4220 N   0  0  0  0  0  0  0  0  0  0  0  0
  -17.7280  -27.8950   56.0500 H   0  0  0  0  0  0  0  0  0  0  0  0
  -19.0030  -33.1700   54.4780 H   0  0  0  0  0  0  0  0  0  0  0  0
  -15.2450  -28.4430   56.1940 H   0  0  0  0  0  0  0  0  0  0  0  0
  -20.3190  -26.8960   55.9450 C   0  0  0  0  0  0  0  0  0  0  0  0
  -19.8290  -28.2920   55.6960 N   0  0  0  0  0  0  0  0  0  0  0  0
  -19.6480  -26.1470   56.1770 H   0  0  0  0  0  0  0  0  0  0  0  0
  -24.2080  -27.3300   55.2830 C   0  0  0  0  0  0  0  0  0  0  0  0
  -22.7430  -27.6370   55.3730 C   0  0  0  0  0  0  0  0  0  0  0  0
  -21.7850  -26.5890   55.8550 C   0  0  0  0  0  0  0  0  0  0  0  0
  -22.2920  -25.2330   56.2480 C   0  0  0  0  0  0  0  0  0  0  0  0
  -23.7570  -24.9260   56.1580 C   0  0  0  0  0  0  0  0  0  0  0  0
  -24.7150  -25.9740   55.6760 C   0  0  0  0  0  0  0  0  0  0  0  0
  -22.3940  -28.5700   55.1030 H   0  0  0  0  0  0  0  0  0  0  0  0
  -21.6330  -24.5110   56.5790 H   0  0  0  0  0  0  0  0  0  0  0  0
  -24.1060  -23.9920   56.4280 H   0  0  0  0  0  0  0  0  0  0  0  0
  -26.1810  -25.6670   55.5870 O   0  0  0  0  0  0  0  0  0  0  0  0
  -26.7800  -26.3220   55.2850 H   0  0  0  0  0  0  0  0  0  0  0  0
  -25.1660  -28.3790   54.8010 O   0  0  0  0  0  0  0  0  0  0  0  0
  -25.6580  -29.4360   55.7450 C   0  0  0  0  0  0  0  0  0  0  0  0
  -25.3260  -29.4420   56.7620 H   0  0  0  0  0  0  0  0  0  0  0  0
  -26.3420  -30.1840   55.4010 H   0  0  0  0  0  0  0  0  0  0  0  0
  -26.0090  -30.1900   56.4180 H   0  0  0  0  0  0  0  0  0  0  0  0
  -13.5060  -32.8490   55.2110 C   0  0  0  0  0  0  0  0  0  0  0  0
  -12.8590  -33.6880   55.0620 H   0  0  0  0  0  0  0  0  0  0  0  0
  -12.8570  -33.0650   53.8770 C   0  0  0  0  0  0  0  0  0  0  0  0
  -12.2100  -33.9040   53.7260 H   0  0  0  0  0  0  0  0  0  0  0  0
  -13.0410  -32.3820   53.0750 H   0  0  0  0  0  0  0  0  0  0  0  0
  -12.3940  -33.2210   52.9250 H   0  0  0  0  0  0  0  0  0  0  0  0
  -13.2490  -33.8070   56.3360 C   0  0  0  0  0  0  0  0  0  0  0  0
  -13.7120  -33.6530   57.2880 H   0  0  0  0  0  0  0  0  0  0  0  0
  -12.6010  -34.6460   56.1860 H   0  0  0  0  0  0  0  0  0  0  0  0
  -13.0640  -34.4920   57.1380 H   0  0  0  0  0  0  0  0  0  0  0  0
  1 11  1  0
  2  7  1  0
  2  1  1  0
  3  2  1  0
  4  5  1  0
  4  3  2  0
  5  6  1  0
  6 10  1  0
  6  7  2  0
  7  8  1  0
  8 13  1  0
  9  8  2  0
 10  9  1  0
 12  4  1  0
 14 16  1  0
 15  1  1  0
 15 14  2  0
 17 18  2  0
 17 22  1  0
 18 19  1  0
 19 14  1  0
 19 20  2  0
 20 24  1  0
 21 20  1  0
 21 25  1  0
 22 21  2  0
 23 18  1  0
 26 22  1  0
 27 26  1  0
 28 17  1  0
 28 29  1  0
 29 32  1  0
 29 30  1  0
 31 29  1  0
 33 10  1  0
 33 39  1  0
 34 33  1  0
 35 33  1  0
 36 35  1  0
 37 35  1  0
 38 35  1  0
 39 42  1  0
 39 40  1  0
 41 39  1  0
M  END
>  <minimizedAffinity>  (1) 
-7.60863781

$$$$

     RDKit          3D

 44 44  0  0  0  0  0  0  0  0999 V2000
  -20.1970  -27.2720   55.7890 C   0  0  0  0  0  0  0  0  0  0  0  0
  -18.9070  -26.6570   55.3310 C   0  0  0  0  0  0  0  0  0  0  0  0
  -17.6900  -27.5150   55.1490 C   0  0  0  0  0  0  0  0  0  0  0  0
  -17.7630  -28.9870   55.4250 C   0  0  0  0  0  0  0  0  0  0  0  0
  -19.0520  -29.6020   55.8820 C   0  0  0  0  0  0  0  0  0  0  0  0
  -20.2690  -28.7450   56.0640 C   0  0  0  0  0  0  0  0  0  0  0  0
  -18.8570  -25.6440   55.1420 H   0  0  0  0  0  0  0  0  0  0  0  0
  -16.8030  -27.0920   54.8340 H   0  0  0  0  0  0  0  0  0  0  0  0
  -19.1020  -30.6160   56.0720 H   0  0  0  0  0  0  0  0  0  0  0  0
  -21.1560  -29.1680   56.3790 H   0  0  0  0  0  0  0  0  0  0  0  0
  -23.9940  -26.1230   55.8890 C   0  0  0  0  0  0  0  0  0  0  0  0
  -23.8480  -24.6990   56.3350 C   0  0  0  0  0  0  0  0  0  0  0  0
  -22.4840  -24.1320   56.5990 C   0  0  0  0  0  0  0  0  0  0  0  0
  -21.2670  -24.9900   56.4170 C   0  0  0  0  0  0  0  0  0  0  0  0
  -21.4140  -26.4140   55.9710 C   0  0  0  0  0  0  0  0  0  0  0  0
  -22.7770  -26.9810   55.7070 C   0  0  0  0  0  0  0  0  0  0  0  0
  -24.6850  -24.1090   56.4600 H   0  0  0  0  0  0  0  0  0  0  0  0
  -22.3830  -23.1520   56.9060 H   0  0  0  0  0  0  0  0  0  0  0  0
  -20.3290  -24.6000   56.5990 H   0  0  0  0  0  0  0  0  0  0  0  0
  -22.8780  -27.9610   55.3990 H   0  0  0  0  0  0  0  0  0  0  0  0
  -27.1440  -28.1610   54.8910 C   0  0  0  0  0  0  0  0  0  0  0  0
  -27.7680  -26.9630   55.5440 N   0  0  0  0  0  0  0  0  0  0  0  0
  -26.6640  -26.0540   55.9970 N   0  0  0  0  0  0  0  0  0  0  0  0
  -25.3570  -26.6900   55.6240 C   0  0  0  0  0  0  0  0  0  0  0  0
  -25.6540  -27.9920   54.9410 O   0  0  0  0  0  0  0  0  0  0  0  0
  -27.8800  -29.3240   54.2940 C   0  0  0  0  0  0  0  0  0  0  0  0
  -27.3340  -30.1310   53.8510 H   0  0  0  0  0  0  0  0  0  0  0  0
  -28.9490  -29.3460   54.3110 H   0  0  0  0  0  0  0  0  0  0  0  0
  -28.4040  -30.1530   53.8680 H   0  0  0  0  0  0  0  0  0  0  0  0
  -16.5460  -29.8450   55.2420 C   0  0  0  0  0  0  0  0  0  0  0  0
  -16.3910  -30.6730   54.0020 O   0  0  0  0  0  0  0  0  0  0  0  0
  -15.4840  -29.8750   56.3010 N   0  0  0  0  0  0  0  0  0  0  0  0
  -15.5850  -29.3310   57.1160 H   0  0  0  0  0  0  0  0  0  0  0  0
  -14.2670  -30.7330   56.1190 C   0  0  0  0  0  0  0  0  0  0  0  0
  -13.8930  -30.9290   55.1360 H   0  0  0  0  0  0  0  0  0  0  0  0
  -13.3990  -31.3450   55.9890 H   0  0  0  0  0  0  0  0  0  0  0  0
  -13.5730  -31.3140   57.3150 C   0  0  0  0  0  1  0  0  0  0  0  0
  -13.6160  -31.7940   58.7360 C   0  0  0  0  0  3  0  0  0  0  0  0
  -12.3300  -31.8430   57.9670 C   0  0  0  0  0  2  0  0  0  0  0  0
  -13.0790  -31.7300   58.1690 H   0  0  0  0  0  0  0  0  0  0  0  0
  -14.1640  -31.9720   59.6380 H   0  0  0  0  0  0  0  0  0  0  0  0
  -12.9010  -32.2040   59.4180 H   0  0  0  0  0  0  0  0  0  0  0  0
  -11.2870  -32.0800   57.9180 H   0  0  0  0  0  0  0  0  0  0  0  0
  -12.0300  -31.5730   56.9750 H   0  0  0  0  0  0  0  0  0  0  0  0
  1 15  1  0
  1  6  1  0
  2  1  2  0
  3  2  1  0
  3  4  2  0
  4  5  1  0
  5  6  2  0
  5  9  1  0
  6 10  1  0
  7  2  1  0
  8  3  1  0
 11 12  1  0
 12 17  1  0
 12 13  2  0
 13 18  1  0
 14 19  1  0
 14 13  1  0
 15 14  2  0
 16 11  2  0
 16 15  1  0
 20 16  1  0
 21 25  1  0
 21 22  2  0
 22 23  1  0
 24 11  1  0
 24 23  2  0
 25 24  1  0
 26 28  1  0
 26 21  1  0
 27 26  1  0
 29 26  1  0
 30  4  1  0
 30 32  1  0
 31 30  2  0
 32 33  1  0
 34 32  1  0
 34 37  1  0
 35 34  1  0
 36 34  1  0
 38 42  1  0
 38 41  1  0
 40 38  1  0
 43 39  1  0
 44 39  1  0
M  END
>  <minimizedAffinity>  (2) 
-9.75305653

$$$$

     RDKit          3D

 45 46  0  0  0  0  0  0  0  0999 V2000
  -21.9780  -28.0290   55.1980 C   0  0  0  0  0  0  0  0  0  0  0  0
  -21.4410  -29.3220   54.6610 N   0  0  0  0  0  0  0  0  0  0  0  0
  -19.9430  -29.2400   54.6680 C   0  0  0  0  0  0  0  0  0  0  0  0
  -19.5560  -27.8950   55.2100 C   0  0  0  0  0  0  0  0  0  0  0  0
  -20.8130  -27.1470   55.5370 N   0  0  0  0  0  0  0  0  0  0  0  0
  -20.8640  -26.2370   55.9100 H   0  0  0  0  0  0  0  0  0  0  0  0
  -18.1550  -27.3880   55.3920 C   0  0  0  0  0  0  0  0  0  0  0  0
  -17.0550  -28.3400   55.7560 C   0  0  0  0  0  0  0  0  0  0  0  0
  -15.6550  -27.8340   55.9380 C   0  0  0  0  0  0  0  0  0  0  0  0
  -15.3550  -26.3750   55.7560 C   0  0  0  0  0  3  0  0  0  0  0  0
  -16.4560  -25.4240   55.3920 C   0  0  0  0  0  0  0  0  0  0  0  0
  -17.8560  -25.9300   55.2100 C   0  0  0  0  0  0  0  0  0  0  0  0
  -15.8620  -24.0500   55.2800 O   0  0  0  0  0  0  0  0  0  0  0  0
  -14.3950  -24.1540   55.5750 C   0  0  0  0  0  3  0  0  0  0  0  0
  -14.0820  -25.5900   55.8690 O   0  0  0  0  0 15  0  0  0  0  0  0
  -17.2600  -29.3430   55.8810 H   0  0  0  0  0  0  0  0  0  0  0  0
  -14.8980  -28.4890   56.1880 H   0  0  0  0  0  0  0  0  0  0  0  0
  -18.6130  -25.2750   54.9600 H   0  0  0  0  0  0  0  0  0  0  0  0
  -13.6950  -23.3440   55.5750 H   0  0  0  0  0  0  0  0  0  0  0  0
  -13.3780  -24.3910   55.8060 H   0  0  0  0  0  0  0  0  0  0  0  0
  -26.3240  -26.9770   55.7040 C   0  0  0  0  0  3  0  0  0  0  0  0
  -25.9300  -28.3740   55.3240 C   0  0  0  0  0  0  0  0  0  0  0  0
  -24.4810  -28.7240   55.1550 C   0  0  0  0  0  0  0  0  0  0  0  0
  -23.4280  -27.6780   55.3670 C   0  0  0  0  0  0  0  0  0  0  0  0
  -23.8210  -26.2820   55.7470 C   0  0  0  0  0  0  0  0  0  0  0  0
  -25.2710  -25.9320   55.9150 C   0  0  0  0  0  0  0  0  0  0  0  0
  -26.6560  -29.0940   55.1780 H   0  0  0  0  0  0  0  0  0  0  0  0
  -24.2090  -29.6850   54.8940 H   0  0  0  0  0  0  0  0  0  0  0  0
  -23.0970  -25.5620   55.8920 H   0  0  0  0  0  0  0  0  0  0  0  0
  -25.5430  -24.9710   56.1770 H   0  0  0  0  0  0  0  0  0  0  0  0
  -27.7740  -26.6270   55.8720 C   0  0  0  0  0  3  0  0  0  0  0  0
  -28.1900  -26.5290   56.8530 H   0  0  0  0  0  0  0  0  0  0  0  0
  -27.1560  -26.7780   56.7330 H   0  0  0  0  0  0  0  0  0  0  0  0
  -28.6390  -26.4160   54.6660 O   0  0  0  0  0  0  0  0  0  0  0  0
  -28.2630  -26.5050   53.7760 H   0  0  0  0  0  0  0  0  0  0  0  0
  -18.9990  -30.3130   54.2130 C   0  0  0  0  0  0  0  0  0  0  0  0
  -18.3850  -30.2420   52.8460 C   0  0  0  0  0  0  0  0  0  0  0  0
  -17.4410  -31.3150   52.3910 C   0  0  0  0  0  0  0  0  0  0  0  0
  -17.1110  -32.4590   53.3030 C   0  0  0  0  0  0  0  0  0  0  0  0
  -17.7250  -32.5300   54.6700 C   0  0  0  0  0  0  0  0  0  0  0  0
  -18.6690  -31.4570   55.1250 N   0  0  0  0  0  0  0  0  0  0  0  0
  -18.6120  -29.4540   52.2190 H   0  0  0  0  0  0  0  0  0  0  0  0
  -17.0180  -31.2660   51.4510 H   0  0  0  0  0  0  0  0  0  0  0  0
  -16.4620  -33.1970   52.9900 H   0  0  0  0  0  0  0  0  0  0  0  0
  -17.4990  -33.3170   55.2970 H   0  0  0  0  0  0  0  0  0  0  0  0
  1 24  1  0
  1  5  1  0
  2  3  1  0
  2  1  2  0
  3  4  2  0
  4  7  1  0
  4  5  1  0
  5  6  1  0
  7  8  1  0
  8 16  1  0
  8  9  2  0
  9 17  1  0
 10  9  1  0
 11 10  2  0
 12  7  2  0
 12 11  1  0
 13 11  1  0
 13 14  1  0
 14 20  1  0
 18 12  1  0
 19 14  1  0
 21 26  1  0
 22 21  2  0
 23 22  1  0
 23 24  2  0
 24 25  1  0
 25 29  1  0
 25 26  2  0
 26 30  1  0
 27 22  1  0
 28 23  1  0
 31 33  1  0
 31 32  1  0
 34 31  1  0
 35 34  1  0
 36  3  1  0
 36 41  1  0
 37 36  2  0
 38 37  1  0
 38 39  2  0
 39 40  1  0
 40 41  2  0
 40 45  1  0
 42 37  1  0
 43 38  1  0
 44 39  1  0
M  END
>  <minimizedAffinity>  (3) 
-8.61042786

$$$$

     RDKit          3D

 57 52  0  0  0  0  0  0  0  0999 V2000
  -17.7540  -32.7790   52.9910 N   0  0  0  0  0  2  0  0  0  0  0  0
  -19.0500  -32.9540   52.2560 C   0  0  0  0  0  0  0  0  0  0  0  0
  -19.9600  -31.8280   52.6460 N   0  0  0  0  0  2  0  0  0  0  0  0
  -19.2260  -30.9560   53.6220 C   0  0  0  0  0  0  0  0  0  0  0  0
  -17.8630  -31.5430   53.8350 C   0  0  0  0  0  3  0  0  0  0  0  0
  -19.2750  -33.7160   51.5980 H   0  0  0  0  0  0  0  0  0  0  0  0
  -14.1680  -35.4830   52.7120 N   0  0  0  0  0 15  0  0  0  0  0  0
  -14.1870  -34.1830   51.9630 C   0  0  0  0  0  2  0  0  0  0  0  0
  -15.3820  -33.2820   52.0560 C   0  0  0  0  0  2  0  0  0  0  0  0
  -16.5580  -33.6800   52.8980 C   0  0  0  0  0  1  0  0  0  0  0  0
  -16.5390  -34.9800   53.6470 C   0  0  0  0  0  2  0  0  0  0  0  0
  -15.3440  -35.8810   53.5540 C   0  0  0  0  0  2  0  0  0  0  0  0
  -13.3480  -33.8990   51.3630 H   0  0  0  0  0  0  0  0  0  0  0  0
  -14.2010  -33.2560   51.4290 H   0  0  0  0  0  0  0  0  0  0  0  0
  -15.3960  -32.3550   51.5220 H   0  0  0  0  0  0  0  0  0  0  0  0
  -16.2350  -32.6390   52.1230 H   0  0  0  0  0  0  0  0  0  0  0  0
  -17.3970  -33.9640   53.4990 H   0  0  0  0  0  0  0  0  0  0  0  0
  -17.3780  -35.2640   54.2480 H   0  0  0  0  0  0  0  0  0  0  0  0
  -16.5250  -35.9070   54.1810 H   0  0  0  0  0  0  0  0  0  0  0  0
  -15.3300  -36.8080   54.0880 H   0  0  0  0  0  0  0  0  0  0  0  0
  -14.4910  -36.5240   53.4880 H   0  0  0  0  0  0  0  0  0  0  0  0
  -12.9720  -36.3840   52.6190 C   0  0  0  0  0  3  0  0  0  0  0  0
  -12.1330  -36.1000   52.0190 H   0  0  0  0  0  0  0  0  0  0  0  0
  -12.9590  -37.3110   53.1540 H   0  0  0  0  0  0  0  0  0  0  0  0
  -12.1200  -37.0270   52.5530 H   0  0  0  0  0  0  0  0  0  0  0  0
  -19.7630  -29.7140   54.2710 C   0  0  0  0  0  0  0  0  0  0  0  0
  -20.1600  -29.7350   55.7160 C   0  0  0  0  0  0  0  0  0  0  0  0
  -20.6970  -28.4930   56.3650 C   0  0  0  0  0  0  0  0  0  0  0  0
  -20.8350  -27.2310   55.5680 C   0  0  0  0  0  0  0  0  0  0  0  0
  -21.3710  -25.9890   56.2170 F   0  0  0  0  0  0  0  0  0  0  0  0
  -20.4370  -27.2090   54.1210 C   0  0  0  0  0  0  0  0  0  0  0  0
  -19.9010  -28.4510   53.4730 C   0  0  0  0  0  0  0  0  0  0  0  0
  -20.0650  -30.6040   56.2650 H   0  0  0  0  0  0  0  0  0  0  0  0
  -20.9700  -28.5080   57.3600 H   0  0  0  0  0  0  0  0  0  0  0  0
  -20.5320  -26.3410   53.5740 H   0  0  0  0  0  0  0  0  0  0  0  0
  -19.6270  -28.4360   52.4780 H   0  0  0  0  0  0  0  0  0  0  0  0
  -16.7970  -30.9930   54.7340 C   0  0  0  0  0  0  0  0  0  0  0  0
  -16.5700  -29.5130   54.8120 C   0  0  0  0  0  0  0  0  0  0  0  0
  -15.5030  -28.9630   55.7120 C   0  0  0  0  0  0  0  0  0  0  0  0
  -14.6620  -29.8940   56.5330 N   0  0  0  0  0  0  0  0  0  0  0  0
  -14.8890  -31.3750   56.4550 C   0  0  0  0  0  0  0  0  0  0  0  0
  -14.0470  -32.3060   57.2770 N   0  0  0  0  0  0  0  0  0  0  0  0
  -15.9550  -31.9250   55.5560 N   0  0  0  0  0  0  0  0  0  0  0  0
  -17.1490  -28.8710   54.2470 H   0  0  0  0  0  0  0  0  0  0  0  0
  -15.3470  -27.9440   55.7650 H   0  0  0  0  0  0  0  0  0  0  0  0
  -14.1960  -33.2780   57.2260 H   0  0  0  0  0  0  0  0  0  0  0  0
  -12.9800  -31.7560   58.1770 C   0  0  0  0  0  0  0  0  0  0  0  0
  -11.5630  -31.6660   57.6930 C   0  0  0  0  0  0  0  0  0  0  0  0
  -10.4970  -31.1170   58.5920 C   0  0  0  0  0  0  0  0  0  0  0  0
  -10.8460  -30.6570   59.9760 C   0  0  0  0  0  0  0  0  0  0  0  0
  -12.2630  -30.7470   60.4610 C   0  0  0  0  0  0  0  0  0  0  0  0
  -13.3300  -31.2970   59.5610 C   0  0  0  0  0  0  0  0  0  0  0  0
  -11.3230  -31.9830   56.7410 H   0  0  0  0  0  0  0  0  0  0  0  0
   -9.5220  -31.0550   58.2590 H   0  0  0  0  0  0  0  0  0  0  0  0
  -10.1130  -30.2790   60.5950 H   0  0  0  0  0  0  0  0  0  0  0  0
  -12.5040  -30.4300   61.4130 H   0  0  0  0  0  0  0  0  0  0  0  0
  -14.3050  -31.3580   59.8950 H   0  0  0  0  0  0  0  0  0  0  0  0
  2  3  1  0
  2  1  2  0
  3  4  1  0
  4  5  2  0
  4 26  1  0
  5 37  1  0
  6  2  1  0
  9 16  1  0
 10 17  1  0
 11 19  1  0
 11 18  1  0
 12 20  1  0
 13  8  1  0
 14  8  1  0
 15  9  1  0
 21 12  1  0
 22 24  1  0
 23 22  1  0
 25 22  1  0
 26 27  1  0
 27 33  1  0
 27 28  2  0
 28 34  1  0
 29 30  1  0
 29 28  1  0
 31 29  2  0
 32 31  1  0
 32 26  2  0
 35 31  1  0
 36 32  1  0
 37 38  1  0
 37 43  2  0
 38 39  2  0
 39 45  1  0
 39 40  1  0
 41 40  2  0
 41 42  1  0
 42 47  1  0
 43 41  1  0
 44 38  1  0
 46 42  1  0
 47 52  1  0
 48 47  2  0
 48 49  1  0
 49 50  2  0
 50 51  1  0
 50 55  1  0
 51 56  1  0
 52 57  1  0
 52 51  2  0
 53 48  1  0
 54 49  1  0
M  END
>  <minimizedAffinity>  (4) 
-7.9417696

$$$$

     RDKit          3D

 54 52  0  0  0  0  0  0  0  0999 V2000
  -18.3830  -30.8370   55.0890 C   0  0  0  0  0  0  0  0  0  0  0  0
  -17.5420  -31.9340   55.6720 C   0  0  0  0  0  0  0  0  0  0  0  0
  -18.2080  -33.2420   55.3660 N   0  0  0  0  0  0  0  0  0  0  0  0
  -19.4620  -32.9540   54.5940 C   0  0  0  0  0  0  0  0  0  0  0  0
  -19.5700  -31.4680   54.4230 N   0  0  0  0  0  0  0  0  0  0  0  0
  -20.1320  -33.6550   54.2420 H   0  0  0  0  0  0  0  0  0  0  0  0
  -20.6710  -30.7390   53.7110 C   0  0  0  0  0  2  0  0  0  0  0  0
  -20.3410  -29.7040   52.6780 C   0  0  0  0  0  2  0  0  0  0  0  0
  -21.4430  -28.9760   51.9660 C   0  0  0  0  0  2  0  0  0  0  0  0
  -22.8740  -29.2830   52.2890 N   0  0  0  0  0  1  0  0  0  0  0  0
  -23.2050  -30.3180   53.3220 C   0  0  0  0  0  2  0  0  0  0  0  0
  -22.1040  -31.0470   54.0340 C   0  0  0  0  0  2  0  0  0  0  0  0
  -21.4580  -30.2200   53.2040 H   0  0  0  0  0  0  0  0  0  0  0  0
  -19.3190  -29.4850   52.4480 H   0  0  0  0  0  0  0  0  0  0  0  0
  -20.1050  -28.9650   51.9400 H   0  0  0  0  0  0  0  0  0  0  0  0
  -21.2060  -28.2380   51.2290 H   0  0  0  0  0  0  0  0  0  0  0  0
  -22.2280  -28.4570   51.4590 H   0  0  0  0  0  0  0  0  0  0  0  0
  -23.6240  -28.7880   51.8050 H   0  0  0  0  0  0  0  0  0  0  0  0
  -24.2270  -30.5370   53.5520 H   0  0  0  0  0  0  0  0  0  0  0  0
  -23.4410  -31.0570   54.0600 H   0  0  0  0  0  0  0  0  0  0  0  0
  -22.3390  -31.7850   54.7710 H   0  0  0  0  0  0  0  0  0  0  0  0
  -21.3180  -31.5660   54.5410 H   0  0  0  0  0  0  0  0  0  0  0  0
  -16.2580  -31.7530   56.4280 C   0  0  0  0  0  0  0  0  0  0  0  0
  -16.2390  -31.9100   57.9200 C   0  0  0  0  0  0  0  0  0  0  0  0
  -14.9560  -31.7300   58.6750 C   0  0  0  0  0  0  0  0  0  0  0  0
  -13.6930  -31.3930   57.9400 C   0  0  0  0  0  0  0  0  0  0  0  0
  -12.4100  -31.2120   58.6970 F   0  0  0  0  0  0  0  0  0  0  0  0
  -13.7130  -31.2350   56.4480 C   0  0  0  0  0  0  0  0  0  0  0  0
  -14.9950  -31.4160   55.6930 C   0  0  0  0  0  0  0  0  0  0  0  0
  -17.1080  -32.1420   58.4250 H   0  0  0  0  0  0  0  0  0  0  0  0
  -14.9430  -31.8380   59.7020 H   0  0  0  0  0  0  0  0  0  0  0  0
  -12.8440  -31.0030   55.9430 H   0  0  0  0  0  0  0  0  0  0  0  0
  -15.0090  -31.3080   54.6660 H   0  0  0  0  0  0  0  0  0  0  0  0
  -18.7380  -26.9790   55.9510 C   0  0  0  0  0  0  0  0  0  0  0  0
  -17.5020  -26.4290   55.3040 N   0  0  0  0  0  0  0  0  0  0  0  0
  -16.5600  -27.3480   54.5840 C   0  0  0  0  0  3  0  0  0  0  0  0
  -16.8530  -28.8180   54.5130 C   0  0  0  0  0  0  0  0  0  0  0  0
  -18.0890  -29.3680   55.1610 C   0  0  0  0  0  0  0  0  0  0  0  0
  -19.0320  -28.4490   55.8800 N   0  0  0  0  0  0  0  0  0  0  0  0
  -15.7090  -26.9700   54.1380 H   0  0  0  0  0  0  0  0  0  0  0  0
  -16.2050  -29.4500   54.0180 H   0  0  0  0  0  0  0  0  0  0  0  0
  -19.6800  -26.0600   56.6710 O   0  0  0  0  0  0  0  0  0  0  0  0
  -24.0890  -26.2100   55.7790 C   0  0  0  0  0  0  0  0  0  0  0  0
  -23.4630  -24.9330   56.2560 C   0  0  0  0  0  0  0  0  0  0  0  0
  -21.9930  -24.8830   56.5540 C   0  0  0  0  0  0  0  0  0  0  0  0
  -21.1500  -26.1100   56.3730 C   0  0  0  0  0  0  0  0  0  0  0  0
  -21.7750  -27.3870   55.8960 C   0  0  0  0  0  0  0  0  0  0  0  0
  -23.2450  -27.4370   55.5990 C   0  0  0  0  0  0  0  0  0  0  0  0
  -24.0430  -24.0880   56.3800 H   0  0  0  0  0  0  0  0  0  0  0  0
  -21.5630  -24.0040   56.8820 H   0  0  0  0  0  0  0  0  0  0  0  0
  -21.1950  -28.2320   55.7720 H   0  0  0  0  0  0  0  0  0  0  0  0
  -23.6750  -28.3160   55.2700 H   0  0  0  0  0  0  0  0  0  0  0  0
  -27.0270  -26.3100   55.1840 N   0  0  0  0  0  1  0  0  0  0  0  0
  -25.5580  -26.2600   55.4820 C   0  0  0  0  0  2  0  0  0  0  0  0
  1 38  1  0
  1  2  2  0
  2 23  1  0
  3  2  1  0
  4  3  2  0
  5  4  1  0
  5  1  1  0
  6  4  1  0
  7  5  1  0
 11 19  1  0
 11 20  1  0
 12 22  1  0
 12 21  1  0
 13  7  1  0
 14  8  1  0
 15  8  1  0
 16  9  1  0
 17  9  1  0
 18 10  1  0
 23 24  1  0
 24 30  1  0
 24 25  2  0
 25 31  1  0
 26 25  1  0
 26 27  1  0
 28 26  2  0
 29 23  2  0
 29 28  1  0
 32 28  1  0
 33 29  1  0
 34 42  1  0
 35 34  2  0
 36 35  1  0
 37 36  1  0
 37 38  2  0
 38 39  1  0
 39 34  2  0
 40 36  1  0
 41 37  1  0
 43 44  1  0
 44 49  1  0
 44 45  2  0
 45 50  1  0
 46 45  1  0
 46 42  1  0
 47 46  2  0
 48 43  2  0
 48 47  1  0
 51 47  1  0
 52 48  1  0
 53 54  1  0
 54 43  1  0
M  END
>  <minimizedAffinity>  (5) 
-8.90480614

$$$$

     RDKit          3D

 58 53  0  0  0  0  0  0  0  0999 V2000
  -18.6290  -30.8830   54.3360 N   0  0  0  0  0  2  0  0  0  0  0  0
  -20.1240  -30.9490   54.2410 C   0  0  0  0  0  0  0  0  0  0  0  0
  -20.6760  -29.6180   54.6580 N   0  0  0  0  0  2  0  0  0  0  0  0
  -19.5210  -28.7280   55.0110 C   0  0  0  0  0  0  0  0  0  0  0  0
  -19.4580  -27.3070   55.4870 C   0  0  0  0  0  0  0  0  0  0  0  0
  -18.1290  -26.6670   55.7650 N   0  0  0  0  0  0  0  0  0  0  0  0
  -16.8650  -27.4490   55.5660 C   0  0  0  0  0  0  0  0  0  0  0  0
  -16.9280  -28.8700   55.0890 C   0  0  0  0  0  0  0  0  0  0  0  0
  -18.2560  -29.5090   54.8120 C   0  0  0  0  0  3  0  0  0  0  0  0
  -15.9510  -27.0090   55.7570 H   0  0  0  0  0  0  0  0  0  0  0  0
  -20.9270  -32.1390   53.8060 C   0  0  0  0  0  0  0  0  0  0  0  0
  -20.6470  -33.5700   54.1590 N   0  0  0  0  0  0  0  0  0  0  0  0
  -21.6990  -34.4220   53.5120 O   0  0  0  0  0  0  0  0  0  0  0  0
  -22.6290  -33.5180   52.7590 N   0  0  0  0  0  0  0  0  0  0  0  0
  -22.1530  -32.1070   52.9400 C   0  0  0  0  0  0  0  0  0  0  0  0
  -22.7890  -30.8800   52.3590 N   0  0  0  0  0  0  0  0  0  0  0  0
  -22.4010  -29.9930   52.5350 H   0  0  0  0  0  0  0  0  0  0  0  0
  -23.5960  -30.9610   51.8000 H   0  0  0  0  0  0  0  0  0  0  0  0
  -17.6740  -31.9930   54.0130 C   0  0  0  0  0  3  0  0  0  0  0  0
  -17.4420  -32.7320   54.7510 H   0  0  0  0  0  0  0  0  0  0  0  0
  -18.1240  -31.9390   54.9820 H   0  0  0  0  0  0  0  0  0  0  0  0
  -17.0430  -32.0680   52.6540 C   0  0  0  0  0  0  0  0  0  0  0  0
  -17.2750  -31.3290   51.9150 H   0  0  0  0  0  0  0  0  0  0  0  0
  -16.3630  -32.8600   52.4230 H   0  0  0  0  0  0  0  0  0  0  0  0
  -16.5940  -32.1220   51.6850 H   0  0  0  0  0  0  0  0  0  0  0  0
  -20.7220  -26.5260   55.6860 C   0  0  0  0  0  0  0  0  0  0  0  0
  -21.9870  -25.7440   55.8850 C   0  0  0  0  0  0  0  0  0  0  0  0
  -23.2520  -24.9630   56.0840 C   0  0  0  0  0  0  0  0  0  0  0  0
  -24.0530  -26.1370   55.6030 C   0  0  0  0  0  0  0  0  0  0  0  0
  -23.5570  -27.0380   55.3080 H   0  0  0  0  0  0  0  0  0  0  0  0
  -25.1200  -26.0730   55.5540 H   0  0  0  0  0  0  0  0  0  0  0  0
  -24.6240  -26.9740   55.2590 H   0  0  0  0  0  0  0  0  0  0  0  0
  -22.4520  -23.7890   56.5650 C   0  0  0  0  0  0  0  0  0  0  0  0
  -22.9480  -22.8880   56.8590 H   0  0  0  0  0  0  0  0  0  0  0  0
  -21.3840  -23.8540   56.6130 H   0  0  0  0  0  0  0  0  0  0  0  0
  -21.8810  -22.9520   56.9080 H   0  0  0  0  0  0  0  0  0  0  0  0
  -24.5170  -24.1820   56.2830 O   0  0  0  0  0  0  0  0  0  0  0  0
  -25.3750  -24.5860   56.0770 H   0  0  0  0  0  0  0  0  0  0  0  0
  -15.6630  -29.6510   54.8910 O   0  0  0  0  0  0  0  0  0  0  0  0
  -14.7690  -29.9420   56.0600 C   0  0  0  0  0  3  0  0  0  0  0  0
  -14.0960  -29.1910   56.4190 H   0  0  0  0  0  0  0  0  0  0  0  0
  -14.1310  -30.1490   56.8940 H   0  0  0  0  0  0  0  0  0  0  0  0
  -14.8180  -31.2850   56.7260 C   0  0  0  0  0  1  0  0  0  0  0  0
  -16.0730  -31.7350   57.4140 C   0  0  0  0  0  2  0  0  0  0  0  0
  -16.1220  -33.0780   58.0800 C   0  0  0  0  0  2  0  0  0  0  0  0
  -14.9160  -33.9710   58.0580 N   0  0  0  0  0  2  0  0  0  0  0  0
  -13.6620  -33.5200   57.3700 C   0  0  0  0  0  3  0  0  0  0  0  0
  -13.6130  -32.1770   56.7040 C   0  0  0  0  0  2  0  0  0  0  0  0
  -14.8530  -32.2430   57.2010 H   0  0  0  0  0  0  0  0  0  0  0  0
  -16.9330  -31.0980   57.4300 H   0  0  0  0  0  0  0  0  0  0  0  0
  -16.9680  -32.0570   57.9050 H   0  0  0  0  0  0  0  0  0  0  0  0
  -17.0170  -33.4000   58.5710 H   0  0  0  0  0  0  0  0  0  0  0  0
  -16.1570  -34.0370   58.5550 H   0  0  0  0  0  0  0  0  0  0  0  0
  -14.9500  -34.8840   58.5100 H   0  0  0  0  0  0  0  0  0  0  0  0
  -12.8020  -34.1570   57.3540 H   0  0  0  0  0  0  0  0  0  0  0  0
  -12.7670  -33.1990   56.8790 H   0  0  0  0  0  0  0  0  0  0  0  0
  -12.7180  -31.8560   56.2130 H   0  0  0  0  0  0  0  0  0  0  0  0
  -13.5780  -31.2190   56.2280 H   0  0  0  0  0  0  0  0  0  0  0  0
  2  1  2  0
  2  3  1  0
  3  4  1  0
  4  5  1  0
  5 26  1  0
  5  6  2  0
  7 10  1  0
  7  6  1  0
  8  7  2  0
  9  4  2  0
  9  8  1  0
 11 12  2  0
 11  2  1  0
 13 12  1  0
 14 15  2  0
 14 13  1  0
 15 11  1  0
 16 17  1  0
 16 15  1  0
 18 16  1  0
 19 20  1  0
 19 21  1  0
 22 19  1  0
 23 22  1  0
 24 22  1  0
 25 22  1  0
 26 27  3  0
 27 28  1  0
 28 37  1  0
 28 33  1  0
 29 28  1  0
 30 29  1  0
 31 29  1  0
 32 29  1  0
 33 35  1  0
 33 34  1  0
 33 36  1  0
 38 37  1  0
 39  8  1  0
 39 40  1  0
 40 41  1  0
 40 42  1  0
 43 49  1  0
 44 50  1  0
 44 51  1  0
 45 53  1  0
 45 52  1  0
 46 54  1  0
 47 46  1  0
 55 47  1  0
 56 47  1  0
 57 48  1  0
 58 48  1  0
M  END
>  <minimizedAffinity>  (6) 
-9.04815578

$$$$

     RDKit          3D

 42 44  0  0  0  0  0  0  0  0999 V2000
  -18.0700  -29.7950   53.9080 C   0  0  0  0  0  0  0  0  0  0  0  0
  -18.7880  -29.5980   52.6060 C   0  0  0  0  0  0  0  0  0  0  0  0
  -19.9590  -28.6640   52.5290 C   0  0  0  0  0  0  0  0  0  0  0  0
  -20.4140  -27.9280   53.7550 N   0  0  0  0  0  0  0  0  0  0  0  0
  -19.6960  -28.1260   55.0570 C   0  0  0  0  0  0  0  0  0  0  0  0
  -20.1510  -27.3900   56.2830 N   0  0  0  0  0  0  0  0  0  0  0  0
  -18.5250  -29.0590   55.1340 N   0  0  0  0  0  0  0  0  0  0  0  0
  -18.4750  -30.1040   51.7630 H   0  0  0  0  0  0  0  0  0  0  0  0
  -20.4530  -28.5280   51.6330 H   0  0  0  0  0  0  0  0  0  0  0  0
  -19.6790  -27.5200   57.1370 H   0  0  0  0  0  0  0  0  0  0  0  0
  -21.3220  -26.4570   56.2060 C   0  0  0  0  0  0  0  0  0  0  0  0
  -21.1300  -24.9890   56.4500 C   0  0  0  0  0  0  0  0  0  0  0  0
  -22.3010  -24.0560   56.3740 C   0  0  0  0  0  0  0  0  0  0  0  0
  -23.6660  -24.5900   56.0520 C   0  0  0  0  0  0  0  0  0  0  0  0
  -23.8580  -26.0570   55.8080 C   0  0  0  0  0  0  0  0  0  0  0  0
  -22.6870  -26.9910   55.8850 C   0  0  0  0  0  0  0  0  0  0  0  0
  -20.1910  -24.6220   56.6710 H   0  0  0  0  0  0  0  0  0  0  0  0
  -22.1690  -23.0460   56.5420 H   0  0  0  0  0  0  0  0  0  0  0  0
  -24.4720  -23.9480   56.0000 H   0  0  0  0  0  0  0  0  0  0  0  0
  -22.8190  -28.0000   55.7160 H   0  0  0  0  0  0  0  0  0  0  0  0
  -25.2230  -26.5910   55.4860 C   0  0  0  0  0  0  0  0  0  0  0  0
  -26.4430  -25.7970   55.8480 N   0  0  0  0  0  0  0  0  0  0  0  0
  -25.3670  -27.9190   54.8040 O   0  0  0  0  0  0  0  0  0  0  0  0
  -26.3490  -24.9250   56.2960 H   0  0  0  0  0  0  0  0  0  0  0  0
  -27.3380  -26.1480   55.6370 H   0  0  0  0  0  0  0  0  0  0  0  0
  -16.8990  -30.7280   53.9850 N   0  0  0  0  0  0  0  0  0  0  0  0
  -16.5880  -31.1960   53.1760 H   0  0  0  0  0  0  0  0  0  0  0  0
  -14.8030  -31.3910   57.9120 C   0  0  0  0  0  0  0  0  0  0  0  0
  -14.4080  -30.2390   57.0360 C   0  0  0  0  0  0  0  0  0  0  0  0
  -15.1060  -30.0190   55.7270 C   0  0  0  0  0  0  0  0  0  0  0  0
  -16.2000  -30.9490   55.2940 C   0  0  0  0  0  0  0  0  0  0  0  0
  -16.5960  -32.1010   56.1700 C   0  0  0  0  0  0  0  0  0  0  0  0
  -15.8970  -32.3220   57.4790 C   0  0  0  0  0  0  0  0  0  0  0  0
  -13.6550  -29.5990   57.3330 H   0  0  0  0  0  0  0  0  0  0  0  0
  -14.8340  -29.2260   55.1240 H   0  0  0  0  0  0  0  0  0  0  0  0
  -17.3480  -32.7410   55.8720 H   0  0  0  0  0  0  0  0  0  0  0  0
  -14.1050  -31.6120   59.2210 C   0  0  0  0  0  0  0  0  0  0  0  0
  -13.3240  -30.9480   59.5290 H   0  0  0  0  0  0  0  0  0  0  0  0
  -14.3870  -32.4340   59.8460 H   0  0  0  0  0  0  0  0  0  0  0  0
  -13.6070  -31.7690   60.1550 H   0  0  0  0  0  0  0  0  0  0  0  0
  -16.2920  -33.4730   58.3550 O   0  0  0  0  0  0  0  0  0  0  0  0
  -15.8560  -33.6110   59.1730 H   0  0  0  0  0  0  0  0  0  0  0  0
  1 26  1  0
  1  7  2  0
  2  1  1  0
  3  2  2  0
  3  4  1  0
  4  5  2  0
  5  7  1  0
  5  6  1  0
  6 10  1  0
  8  2  1  0
  9  3  1  0
 11  6  1  0
 11 12  1  0
 12 17  1  0
 13 12  2  0
 13 18  1  0
 14 13  1  0
 15 16  1  0
 15 14  2  0
 16 11  2  0
 19 14  1  0
 20 16  1  0
 21 15  1  0
 21 22  1  0
 22 24  1  0
 23 21  2  0
 25 22  1  0
 26 31  1  0
 27 26  1  0
 28 37  1  0
 29 34  1  0
 29 28  2  0
 30 29  1  0
 31 30  2  0
 31 32  1  0
 32 33  2  0
 33 28  1  0
 33 41  1  0
 35 30  1  0
 36 32  1  0
 37 38  1  0
 37 39  1  0
 37 40  1  0
 41 42  1  0
M  END
>  <minimizedAffinity>  (7) 
-8.64856339

$$$$

     RDKit          3D

 46 47  0  0  0  0  0  0  0  0999 V2000
  -15.4130  -29.5470   55.6880 C   0  0  0  0  0  0  0  0  0  0  0  0
  -16.7350  -30.2500   55.5900 C   0  0  0  0  0  0  0  0  0  0  0  0
  -17.9980  -29.4540   55.4400 C   0  0  0  0  0  0  0  0  0  0  0  0
  -17.9390  -27.9560   55.3880 C   0  0  0  0  0  0  0  0  0  0  0  0
  -16.6170  -27.2540   55.4870 C   0  0  0  0  0  0  0  0  0  0  0  0
  -15.3550  -28.0490   55.6370 C   0  0  0  0  0  0  0  0  0  0  0  0
  -16.7760  -31.2800   55.6250 H   0  0  0  0  0  0  0  0  0  0  0  0
  -14.4450  -27.5660   55.7040 H   0  0  0  0  0  0  0  0  0  0  0  0
  -19.3190  -30.1570   55.3410 C   0  0  0  0  0  0  0  0  0  0  0  0
  -20.2200  -29.5890   55.2340 H   0  0  0  0  0  0  0  0  0  0  0  0
  -19.3620  -31.2250   55.3780 H   0  0  0  0  0  0  0  0  0  0  0  0
  -20.2620  -30.6580   55.2710 H   0  0  0  0  0  0  0  0  0  0  0  0
  -19.2020  -27.1610   55.2380 C   0  0  0  0  0  0  0  0  0  0  0  0
  -19.9350  -26.6800   56.4560 C   0  0  0  0  0  0  0  0  0  0  0  0
  -19.5670  -26.9440   54.2970 H   0  0  0  0  0  0  0  0  0  0  0  0
  -19.5700  -26.8970   57.3970 H   0  0  0  0  0  0  0  0  0  0  0  0
  -21.1970  -25.8850   56.3060 C   0  0  0  0  0  0  0  0  0  0  0  0
  -21.1710  -24.3960   56.4830 C   0  0  0  0  0  0  0  0  0  0  0  0
  -22.4340  -23.6000   56.3330 N   0  0  0  0  0  0  0  0  0  0  0  0
  -23.7230  -24.2940   56.0060 C   0  0  0  0  0  0  0  0  0  0  0  0
  -23.7490  -25.7830   55.8280 C   0  0  0  0  0  0  0  0  0  0  0  0
  -22.4860  -26.5790   55.9780 C   0  0  0  0  0  0  0  0  0  0  0  0
  -20.2840  -23.9180   56.7080 H   0  0  0  0  0  0  0  0  0  0  0  0
  -24.5920  -23.7470   55.9030 H   0  0  0  0  0  0  0  0  0  0  0  0
  -22.5050  -27.6030   55.8560 H   0  0  0  0  0  0  0  0  0  0  0  0
  -25.0380  -26.4770   55.5010 C   0  0  0  0  0  0  0  0  0  0  0  0
  -25.0190  -27.8170   54.8270 O   0  0  0  0  0  0  0  0  0  0  0  0
  -26.3470  -25.8310   55.8480 N   0  0  0  0  0  0  0  0  0  0  0  0
  -26.3590  -24.9510   56.2900 H   0  0  0  0  0  0  0  0  0  0  0  0
  -27.6360  -26.5250   55.5210 C   0  0  0  0  0  0  0  0  0  0  0  0
  -28.5690  -26.0640   55.7680 H   0  0  0  0  0  0  0  0  0  0  0  0
  -27.6220  -27.4810   55.0390 H   0  0  0  0  0  0  0  0  0  0  0  0
  -28.5550  -27.0200   55.2870 H   0  0  0  0  0  0  0  0  0  0  0  0
  -16.5590  -25.7560   55.4350 C   0  0  0  0  0  0  0  0  0  0  0  0
  -15.6160  -25.2540   55.5050 H   0  0  0  0  0  0  0  0  0  0  0  0
  -17.4590  -25.1880   55.3280 H   0  0  0  0  0  0  0  0  0  0  0  0
  -16.5160  -24.6870   55.3980 H   0  0  0  0  0  0  0  0  0  0  0  0
  -14.1500  -30.3430   55.8380 O   0  0  0  0  0  0  0  0  0  0  0  0
  -13.2530  -32.5360   56.9030 N   0  0  0  0  0  0  0  0  0  0  0  0
  -13.9530  -31.2160   57.0410 C   0  0  0  0  0  0  0  0  0  0  0  0
  -14.4550  -30.7700   58.3820 O   0  0  0  0  0  0  0  0  0  0  0  0
  -12.9230  -32.8280   56.0230 H   0  0  0  0  0  0  0  0  0  0  0  0
  -13.0550  -33.4090   58.1060 C   0  0  0  0  0  0  0  0  0  0  0  0
  -13.4130  -33.0910   59.0630 H   0  0  0  0  0  0  0  0  0  0  0  0
  -12.5560  -34.3510   58.0080 H   0  0  0  0  0  0  0  0  0  0  0  0
  -12.9140  -34.0330   58.9650 H   0  0  0  0  0  0  0  0  0  0  0  0
  1 38  1  0
  2  7  1  0
  2  1  2  0
  3  2  1  0
  4  3  2  0
  4  5  1  0
  5  6  2  0
  6  1  1  0
  6  8  1  0
  9 11  1  0
  9  3  1  0
 10  9  1  0
 12  9  1  0
 13  4  1  0
 13 14  2  0
 14 16  1  0
 15 13  1  0
 17 14  1  0
 17 18  1  0
 18 23  1  0
 19 18  2  0
 20 19  1  0
 21 22  1  0
 21 20  2  0
 22 17  2  0
 24 20  1  0
 25 22  1  0
 26 21  1  0
 26 28  1  0
 27 26  2  0
 28 29  1  0
 30 31  1  0
 30 28  1  0
 32 30  1  0
 33 30  1  0
 34  5  1  0
 34 35  1  0
 36 34  1  0
 37 34  1  0
 38 40  1  0
 39 40  1  0
 39 43  1  0
 40 41  2  0
 42 39  1  0
 43 46  1  0
 43 44  1  0
 45 43  1  0
M  END
>  <minimizedAffinity>  (8) 
-8.72709656

$$$$

     RDKit          3D

 72 69  0  0  0  0  0  0  0  0999 V2000
  -23.2480  -25.6480   55.5520 C   0  0  0  0  0  0  0  0  0  0  0  0
  -23.0950  -24.2190   55.9820 C   0  0  0  0  0  0  0  0  0  0  0  0
  -21.7710  -23.7240   56.4830 C   0  0  0  0  0  0  0  0  0  0  0  0
  -20.5990  -24.6580   56.5550 C   0  0  0  0  0  0  0  0  0  0  0  0
  -20.7520  -26.0870   56.1250 C   0  0  0  0  0  0  0  0  0  0  0  0
  -22.0760  -26.5820   55.6230 C   0  0  0  0  0  0  0  0  0  0  0  0
  -23.9010  -23.5770   55.9330 H   0  0  0  0  0  0  0  0  0  0  0  0
  -21.6660  -22.7410   56.7790 H   0  0  0  0  0  0  0  0  0  0  0  0
  -19.6880  -24.3180   56.8990 H   0  0  0  0  0  0  0  0  0  0  0  0
  -22.1820  -27.5650   55.3280 H   0  0  0  0  0  0  0  0  0  0  0  0
  -19.5810  -27.0210   56.1960 N   0  0  0  0  0  0  0  0  0  0  0  0
  -19.1580  -27.7890   54.9780 C   0  0  0  0  0  0  0  0  0  0  0  0
  -19.9070  -27.6220   53.6890 O   0  0  0  0  0  0  0  0  0  0  0  0
  -19.0890  -27.1310   57.0420 H   0  0  0  0  0  0  0  0  0  0  0  0
  -17.9860  -28.7230   55.0500 C   0  0  0  0  0  0  0  0  0  0  0  0
  -16.7060  -28.2720   55.6870 C   0  0  0  0  0  0  0  0  0  0  0  0
  -15.5340  -29.2060   55.7580 C   0  0  0  0  0  0  0  0  0  0  0  0
  -15.6430  -30.5910   55.1930 C   0  0  0  0  0  0  0  0  0  0  0  0
  -16.9240  -31.0410   54.5560 C   0  0  0  0  0  0  0  0  0  0  0  0
  -18.0960  -30.1070   54.4840 C   0  0  0  0  0  0  0  0  0  0  0  0
  -16.6300  -27.3190   56.0760 H   0  0  0  0  0  0  0  0  0  0  0  0
  -14.6520  -28.8960   56.1970 H   0  0  0  0  0  0  0  0  0  0  0  0
  -17.0000  -31.9940   54.1660 H   0  0  0  0  0  0  0  0  0  0  0  0
  -18.9760  -30.4180   54.0460 H   0  0  0  0  0  0  0  0  0  0  0  0
  -14.4720  -31.5250   55.2640 O   0  0  0  0  0  0  0  0  0  0  0  0
  -14.6920  -32.9860   55.5210 C   0  0  0  0  0  0  0  0  0  0  0  0
  -14.8130  -33.6620   54.7010 H   0  0  0  0  0  0  0  0  0  0  0  0
  -14.8500  -34.0280   55.7050 H   0  0  0  0  0  0  0  0  0  0  0  0
  -14.7430  -33.5000   56.9290 C   0  0  0  0  0  0  0  0  0  0  0  0
  -15.3160  -34.3740   57.1590 H   0  0  0  0  0  0  0  0  0  0  0  0
  -14.7790  -33.8670   57.9340 H   0  0  0  0  0  0  0  0  0  0  0  0
  -13.9920  -32.7890   58.0150 N   0  0  0  0  0  0  0  0  0  0  0  0
  -12.5880  -33.2000   58.3490 C   0  0  0  0  0  0  0  0  0  0  0  0
  -11.8370  -32.4880   59.4360 C   0  0  0  0  0  2  0  0  0  0  0  0
  -12.4880  -31.3650   60.1880 O   0  0  0  0  0 15  0  0  0  0  0  0
  -13.8920  -30.9550   59.8540 C   0  0  0  0  0  2  0  0  0  0  0  0
  -14.6440  -31.6660   58.7680 C   0  0  0  0  0  2  0  0  0  0  0  0
  -12.1230  -34.0000   57.8130 H   0  0  0  0  0  0  0  0  0  0  0  0
  -11.5870  -33.4920   58.5880 H   0  0  0  0  0  0  0  0  0  0  0  0
  -10.8360  -32.7810   59.6740 H   0  0  0  0  0  0  0  0  0  0  0  0
  -11.3010  -31.9810   60.2100 H   0  0  0  0  0  0  0  0  0  0  0  0
  -14.3570  -30.1540   60.3900 H   0  0  0  0  0  0  0  0  0  0  0  0
  -14.8930  -30.6610   59.6160 H   0  0  0  0  0  0  0  0  0  0  0  0
  -15.6450  -31.3730   58.5300 H   0  0  0  0  0  0  0  0  0  0  0  0
  -15.1800  -32.1740   57.9930 H   0  0  0  0  0  0  0  0  0  0  0  0
  -24.5720  -26.1430   55.0510 O   0  0  0  0  0  0  0  0  0  0  0  0
  -26.3470  -31.0300   56.2310 N   0  0  0  0  0 15  0  0  0  0  0  0
  -26.2310  -32.2960   55.4340 C   0  0  0  0  0  2  0  0  0  0  0  0
  -25.4950  -31.9810   54.1650 N   0  0  0  0  0  2  0  0  0  0  0  0
  -25.1550  -30.5190   54.1790 C   0  0  0  0  0  0  0  0  0  0  0  0
  -24.4340  -29.6470   53.1930 C   0  0  0  0  0  0  0  0  0  0  0  0
  -24.2400  -28.1890   53.4840 N   0  0  0  0  0  0  0  0  0  0  0  0
  -24.7660  -27.6020   54.7600 C   0  0  0  0  0  0  0  0  0  0  0  0
  -25.4870  -28.4730   55.7450 C   0  0  0  0  0  0  0  0  0  0  0  0
  -25.6820  -29.9320   55.4550 C   0  0  0  0  0  3  0  0  0  0  0  0
  -24.0720  -30.0510   52.3160 H   0  0  0  0  0  0  0  0  0  0  0  0
  -25.8500  -28.0690   56.6230 H   0  0  0  0  0  0  0  0  0  0  0  0
  -26.7600  -33.6410   55.8350 C   0  0  0  0  0  0  0  0  0  0  0  0
  -27.9240  -34.3530   55.2110 N   0  0  0  0  0  0  0  0  0  0  0  0
  -28.1000  -35.6630   55.9210 O   0  0  0  0  0  0  0  0  0  0  0  0
  -27.0460  -35.7610   56.9830 N   0  0  0  0  0  0  0  0  0  0  0  0
  -26.2170  -34.5110   56.9300 C   0  0  0  0  0  0  0  0  0  0  0  0
  -25.0510  -34.1890   57.8160 N   0  0  0  0  0  0  0  0  0  0  0  0
  -24.5680  -33.3380   57.7040 H   0  0  0  0  0  0  0  0  0  0  0  0
  -24.7680  -34.8260   58.5100 H   0  0  0  0  0  0  0  0  0  0  0  0
  -27.0110  -30.8870   57.5680 C   0  0  0  0  0  3  0  0  0  0  0  0
  -26.4620  -31.0960   58.4630 H   0  0  0  0  0  0  0  0  0  0  0  0
  -25.9890  -31.1980   57.5080 H   0  0  0  0  0  0  0  0  0  0  0  0
  -28.4440  -30.4530   57.6520 C   0  0  0  0  0  0  0  0  0  0  0  0
  -28.9920  -30.2440   56.7560 H   0  0  0  0  0  0  0  0  0  0  0  0
  -28.9170  -30.3510   58.6050 H   0  0  0  0  0  0  0  0  0  0  0  0
  -29.4660  -30.1430   57.7110 H   0  0  0  0  0  0  0  0  0  0  0  0
  1  6  2  0
  1  2  1  0
  2  3  2  0
  3  4  1  0
  3  8  1  0
  4  9  1  0
  5 11  1  0
  5  4  2  0
  6  5  1  0
  7  2  1  0
 10  6  1  0
 11 14  1  0
 12 15  1  0
 12 11  1  0
 13 12  2  0
 15 16  1  0
 16 17  2  0
 16 21  1  0
 17 22  1  0
 18 25  1  0
 18 17  1  0
 19 18  2  0
 20 19  1  0
 20 15  2  0
 23 19  1  0
 24 20  1  0
 25 26  1  0
 26 28  1  0
 26 29  1  0
 27 26  1  0
 29 30  1  0
 29 31  1  0
 29 32  1  0
 32 33  2  0
 33 39  1  0
 34 40  1  0
 34 41  1  0
 36 42  1  0
 38 33  1  0
 43 36  1  0
 44 37  1  0
 45 37  1  0
 46  1  1  0
 48 58  1  0
 49 50  1  0
 49 48  1  0
 50 55  1  0
 51 52  1  0
 51 50  2  0
 52 53  2  0
 53 46  1  0
 53 54  1  0
 54 57  1  0
 55 54  2  0
 56 51  1  0
 58 62  1  0
 59 58  2  0
 59 60  1  0
 60 61  1  0
 62 61  2  0
 62 63  1  0
 63 65  1  0
 64 63  1  0
 66 69  1  0
 66 67  1  0
 68 66  1  0
 69 72  1  0
 69 71  1  0
 70 69  1  0
M  END
>  <minimizedAffinity>  (9) 
-10.4393721

$$$$

     RDKit          3D

 68 67  0  0  1  0  0  0  0  0999 V2000
  -18.4890  -32.6060   54.3060 C   0  0  0  0  0  0  0  0  0  0  0  0
  -19.3200  -31.4540   54.7880 C   0  0  0  0  0  0  0  0  0  0  0  0
  -19.2350  -30.1260   54.0930 C   0  0  0  0  0  3  0  0  0  0  0  0
  -18.3200  -29.9510   52.9180 C   0  0  0  0  0  0  0  0  0  0  0  0
  -17.4880  -31.1030   52.4370 C   0  0  0  0  0  0  0  0  0  0  0  0
  -17.5730  -32.4310   53.1310 C   0  0  0  0  0  0  0  0  0  0  0  0
  -19.9500  -31.5740   55.5960 H   0  0  0  0  0  0  0  0  0  0  0  0
  -18.2620  -29.0380   52.4410 H   0  0  0  0  0  0  0  0  0  0  0  0
  -16.8590  -30.9830   51.6280 H   0  0  0  0  0  0  0  0  0  0  0  0
  -20.0670  -28.9740   54.5750 N   0  0  0  0  0  1  0  0  0  0  0  0
  -19.6730  -28.2330   55.8170 C   0  0  0  0  0  3  0  0  0  0  0  0
  -20.5030  -27.0810   56.2990 C   0  0  0  0  0  2  0  0  0  0  0  0
  -21.7290  -26.6700   55.5370 N   0  0  0  0  0  2  0  0  0  0  0  0
  -22.1230  -27.4110   54.2950 C   0  0  0  0  0  3  0  0  0  0  0  0
  -21.2920  -28.5630   53.8130 C   0  0  0  0  0  2  0  0  0  0  0  0
  -18.7990  -28.5260   56.3600 H   0  0  0  0  0  0  0  0  0  0  0  0
  -19.3910  -27.7030   56.7040 H   0  0  0  0  0  0  0  0  0  0  0  0
  -20.2220  -26.5510   57.1860 H   0  0  0  0  0  0  0  0  0  0  0  0
  -21.0960  -26.2580   56.6430 H   0  0  0  0  0  0  0  0  0  0  0  0
  -22.9970  -27.1180   53.7510 H   0  0  0  0  0  0  0  0  0  0  0  0
  -22.4050  -27.9400   53.4080 H   0  0  0  0  0  0  0  0  0  0  0  0
  -21.5740  -29.0920   52.9260 H   0  0  0  0  0  0  0  0  0  0  0  0
  -20.7000  -29.3850   53.4690 H   0  0  0  0  0  0  0  0  0  0  0  0
  -22.5600  -25.5180   56.0190 C   0  0  0  0  0  0  0  0  0  0  0  0
  -23.1530  -24.6950   56.3620 H   0  0  0  0  0  0  0  0  0  0  0  0
  -21.9010  -24.2270   56.4060 C   0  0  0  0  0  0  0  0  0  0  0  0
  -20.8370  -24.1280   56.3390 H   0  0  0  0  0  0  0  0  0  0  0  0
  -22.4930  -23.4060   56.7500 H   0  0  0  0  0  0  0  0  0  0  0  0
  -21.4300  -23.3070   56.6830 H   0  0  0  0  0  0  0  0  0  0  0  0
  -24.0500  -25.6550   56.1130 C   0  0  0  0  0  0  0  0  0  0  0  0
  -24.6440  -24.8330   56.4560 H   0  0  0  0  0  0  0  0  0  0  0  0
  -24.5210  -26.5760   55.8360 H   0  0  0  0  0  0  0  0  0  0  0  0
  -25.1140  -25.7540   56.1790 H   0  0  0  0  0  0  0  0  0  0  0  0
  -16.7420  -33.5830   52.6500 N   0  0  0  0  0  0  0  0  0  0  0  0
  -15.2810  -33.6440   52.9820 C   0  0  0  0  0  0  0  0  0  0  0  0
  -14.6500  -32.5530   53.7960 N   0  0  0  0  0  0  0  0  0  0  0  0
  -13.1890  -32.6130   54.1280 C   0  0  0  0  0  3  0  0  0  0  0  0
  -12.3580  -33.7660   53.6470 C   0  0  0  0  0  0  0  0  0  0  0  0
  -10.9040  -34.0950   53.8170 C   0  0  0  0  0  0  0  0  0  0  0  0
  -10.6360  -35.3900   53.1080 C   0  0  0  0  0  0  0  0  0  0  0  0
  -11.9240  -35.8600   52.5010 N   0  0  0  0  0  0  0  0  0  0  0  0
  -12.9880  -34.8570   52.8340 C   0  0  0  0  0  0  0  0  0  0  0  0
  -14.4500  -34.7960   52.5010 N   0  0  0  0  0  2  0  0  0  0  0  0
  -17.1550  -34.2990   52.1160 H   0  0  0  0  0  0  0  0  0  0  0  0
  -10.2100  -33.5290   54.3310 H   0  0  0  0  0  0  0  0  0  0  0  0
   -9.7250  -35.8710   53.0490 H   0  0  0  0  0  0  0  0  0  0  0  0
  -12.0490  -36.6840   51.9750 H   0  0  0  0  0  0  0  0  0  0  0  0
  -12.5580  -31.5220   54.9420 N   0  0  0  0  0  0  0  0  0  0  0  0
  -12.1990  -30.7220   54.4980 H   0  0  0  0  0  0  0  0  0  0  0  0
  -12.4750  -31.6530   56.4350 C   0  0  0  0  0  0  0  0  0  0  0  0
  -11.2460  -32.2340   57.0690 C   0  0  0  0  0  0  0  0  0  0  0  0
  -11.1630  -32.3650   58.5600 C   0  0  0  0  0  0  0  0  0  0  0  0
  -12.3080  -31.9140   59.4180 C   0  0  0  0  0  0  0  0  0  0  0  0
  -13.5370  -31.3320   58.7830 C   0  0  0  0  0  0  0  0  0  0  0  0
  -14.6820  -30.8810   59.6410 F   0  0  0  0  0  0  0  0  0  0  0  0
  -13.6200  -31.2020   57.2910 C   0  0  0  0  0  0  0  0  0  0  0  0
  -10.4580  -32.5450   56.4780 H   0  0  0  0  0  0  0  0  0  0  0  0
  -10.3180  -32.7650   58.9970 H   0  0  0  0  0  0  0  0  0  0  0  0
  -12.2510  -32.0030   60.4440 H   0  0  0  0  0  0  0  0  0  0  0  0
  -14.8480  -30.6200   56.6570 C   0  0  0  0  0  0  0  0  0  0  0  0
  -14.7420  -29.3880   55.8080 O   0  0  0  0  0  0  0  0  0  0  0  0
  -16.1820  -31.2710   56.8710 O   0  0  0  0  0  0  0  0  0  0  0  0
  -16.9500  -30.9080   56.4740 H   0  0  0  0  0  0  0  0  0  0  0  0
  -18.5730  -33.9330   55.0000 O   0  0  0  0  0  0  0  0  0  0  0  0
  -19.6440  -34.9120   54.6170 C   0  0  0  0  0  0  0  0  0  0  0  0
  -20.3470  -34.6640   53.8500 H   0  0  0  0  0  0  0  0  0  0  0  0
  -19.7040  -35.8590   55.1120 H   0  0  0  0  0  0  0  0  0  0  0  0
  -20.4070  -35.6100   54.3440 H   0  0  0  0  0  0  0  0  0  0  0  0
  1  2  1  0
  1 64  1  0
  2  7  1  0
  3  2  2  0
  4  3  1  0
  5  4  2  0
  5  6  1  0
  6  1  2  0
  8  4  1  0
  9  5  1  0
 10 11  1  0
 11 16  1  0
 11 17  1  0
 12 19  1  0
 12 18  1  0
 13 24  1  0
 14 13  1  0
 20 14  1  0
 21 14  1  0
 22 15  1  0
 23 15  1  0
 24 30  1  0
 24 25  1  0
 24 26  1  0
 26 29  1  0
 26 28  1  0
 27 26  1  0
 30 33  1  0
 30 31  1  0
 32 30  1  0
 34 35  1  0
 34  6  1  0
 35 36  2  0
 36 37  1  0
 37 48  1  0
 38 39  1  0
 38 37  1  0
 39 45  1  0
 40 39  2  0
 41 42  1  0
 41 40  1  0
 42 38  2  0
 43 42  1  0
 43 35  1  0
 44 34  1  0
 46 40  1  0
 47 41  1  0
 48 50  1  0
 49 48  1  0
 50 51  2  0
 50 56  1  0
 51 52  1  0
 52 58  1  0
 52 53  2  0
 53 59  1  0
 54 53  1  0
 54 55  1  0
 56 54  2  0
 57 51  1  0
 60 62  1  0
 60 56  1  0
 61 60  2  0
 63 62  1  0
 65 64  1  0
 65 67  1  0
 66 65  1  0
 68 65  1  0
M  END
>  <minimizedAffinity>  (10) 
-8.8173666

$$$$

     RDKit          3D

 81 81  0  0  0  0  0  0  0  0999 V2000
  -23.0710  -25.5120   55.7810 C   0  0  0  0  0  0  0  0  0  0  0  0
  -22.0740  -24.8430   56.6800 C   0  0  0  0  0  0  0  0  0  0  0  0
  -20.6180  -25.1850   56.5700 C   0  0  0  0  0  0  0  0  0  0  0  0
  -20.1580  -26.1960   55.5620 C   0  0  0  0  0  0  0  0  0  0  0  0
  -21.1560  -26.8650   54.6640 C   0  0  0  0  0  0  0  0  0  0  0  0
  -22.6120  -26.5230   54.7730 C   0  0  0  0  0  0  0  0  0  0  0  0
  -22.3890  -24.1470   57.3730 H   0  0  0  0  0  0  0  0  0  0  0  0
  -19.9320  -24.7240   57.1890 H   0  0  0  0  0  0  0  0  0  0  0  0
  -20.8390  -27.5610   53.9700 H   0  0  0  0  0  0  0  0  0  0  0  0
  -23.2980  -26.9840   54.1550 H   0  0  0  0  0  0  0  0  0  0  0  0
  -27.0150  -25.9160   55.9590 N   0  0  0  0  0  0  0  0  0  0  0  0
  -25.5590  -26.2580   55.8500 C   0  0  0  0  0  0  0  0  0  0  0  0
  -25.1330  -27.6890   55.6990 O   0  0  0  0  0  0  0  0  0  0  0  0
  -24.5270  -25.1700   55.8900 N   0  0  0  0  0  0  0  0  0  0  0  0
  -27.2940  -24.9780   56.0570 H   0  0  0  0  0  0  0  0  0  0  0  0
  -24.8060  -24.2310   55.9890 H   0  0  0  0  0  0  0  0  0  0  0  0
  -30.1080  -29.1820   55.8360 C   0  0  0  0  0  0  0  0  0  0  0  0
  -29.8470  -28.3510   54.6160 C   0  0  0  0  0  0  0  0  0  0  0  0
  -28.8160  -27.2620   54.6560 C   0  0  0  0  0  0  0  0  0  0  0  0
  -28.0460  -27.0050   55.9180 C   0  0  0  0  0  0  0  0  0  0  0  0
  -28.3080  -27.8360   57.1390 C   0  0  0  0  0  0  0  0  0  0  0  0
  -29.3390  -28.9250   57.0980 C   0  0  0  0  0  0  0  0  0  0  0  0
  -30.3760  -28.5280   53.7480 H   0  0  0  0  0  0  0  0  0  0  0  0
  -28.6350  -26.6900   53.8160 H   0  0  0  0  0  0  0  0  0  0  0  0
  -27.7780  -27.6590   58.0070 H   0  0  0  0  0  0  0  0  0  0  0  0
  -29.5190  -29.4970   57.9380 H   0  0  0  0  0  0  0  0  0  0  0  0
  -30.4360  -33.9440   53.2930 N   0  0  0  0  0  2  0  0  0  0  0  0
  -31.7020  -33.8080   54.0860 C   0  0  0  0  0  3  0  0  0  0  0  0
  -31.9360  -32.5840   54.9210 C   0  0  0  0  0  2  0  0  0  0  0  0
  -30.9050  -31.4950   54.9610 N   0  0  0  0  0  2  0  0  0  0  0  0
  -31.1390  -30.2710   55.7960 C   0  0  0  0  0  0  0  0  0  0  0  0
  -32.4050  -30.1350   56.5890 O   0  0  0  0  0  0  0  0  0  0  0  0
  -29.6390  -31.6310   54.1680 C   0  0  0  0  0  3  0  0  0  0  0  0
  -29.4050  -32.8550   53.3330 C   0  0  0  0  0  2  0  0  0  0  0  0
  -32.4380  -34.5850   54.0570 H   0  0  0  0  0  0  0  0  0  0  0  0
  -32.6050  -33.7110   54.6520 H   0  0  0  0  0  0  0  0  0  0  0  0
  -32.8390  -32.4870   55.4870 H   0  0  0  0  0  0  0  0  0  0  0  0
  -32.1030  -31.7100   55.5160 H   0  0  0  0  0  0  0  0  0  0  0  0
  -28.9040  -30.8540   54.1970 H   0  0  0  0  0  0  0  0  0  0  0  0
  -28.7360  -31.7270   53.6020 H   0  0  0  0  0  0  0  0  0  0  0  0
  -28.5020  -32.9520   52.7670 H   0  0  0  0  0  0  0  0  0  0  0  0
  -29.2380  -33.7280   52.7380 H   0  0  0  0  0  0  0  0  0  0  0  0
  -30.2020  -35.1680   52.4580 C   0  0  0  0  0  0  0  0  0  0  0  0
  -30.9370  -35.9450   52.4290 H   0  0  0  0  0  0  0  0  0  0  0  0
  -29.2980  -35.2650   51.8920 H   0  0  0  0  0  0  0  0  0  0  0  0
  -30.0340  -36.0410   51.8630 H   0  0  0  0  0  0  0  0  0  0  0  0
  -18.7020  -26.5380   55.4530 N   0  0  0  0  0  0  0  0  0  0  0  0
  -18.2580  -27.9680   55.5480 C   0  0  0  0  0  0  0  0  0  0  0  0
  -19.2770  -29.0670   55.6110 C   0  0  0  0  0  0  0  0  0  0  0  0
  -18.8340  -30.4960   55.7060 C   0  0  0  0  0  0  0  0  0  0  0  0
  -17.3710  -30.8270   55.7370 N   0  0  0  0  0  0  0  0  0  0  0  0
  -16.3520  -29.7280   55.6740 C   0  0  0  0  0  0  0  0  0  0  0  0
  -14.8890  -30.0590   55.7050 N   0  0  0  0  0  0  0  0  0  0  0  0
  -16.7960  -28.2990   55.5790 N   0  0  0  0  0  0  0  0  0  0  0  0
  -20.2840  -28.8400   55.5900 H   0  0  0  0  0  0  0  0  0  0  0  0
  -19.5350  -31.2530   55.7500 H   0  0  0  0  0  0  0  0  0  0  0  0
  -14.2210  -29.3380   55.6630 H   0  0  0  0  0  0  0  0  0  0  0  0
  -14.4450  -31.4890   55.7990 C   0  0  0  0  0  0  0  0  0  0  0  0
  -14.4080  -32.3450   54.5690 C   0  0  0  0  0  0  0  0  0  0  0  0
  -13.9640  -33.7760   54.6630 C   0  0  0  0  0  0  0  0  0  0  0  0
  -13.5580  -34.3490   55.9880 C   0  0  0  0  0  0  0  0  0  0  0  0
  -13.5960  -33.4920   57.2200 C   0  0  0  0  0  0  0  0  0  0  0  0
  -14.0390  -32.0620   57.1250 C   0  0  0  0  0  0  0  0  0  0  0  0
  -14.6870  -31.9510   53.6570 H   0  0  0  0  0  0  0  0  0  0  0  0
  -13.9380  -34.3650   53.8160 H   0  0  0  0  0  0  0  0  0  0  0  0
  -13.3170  -33.8860   58.1310 H   0  0  0  0  0  0  0  0  0  0  0  0
  -14.0650  -31.4730   57.9710 H   0  0  0  0  0  0  0  0  0  0  0  0
  -13.1140  -35.7790   56.0830 C   0  0  0  0  0  0  0  0  0  0  0  0
  -13.8250  -36.5690   55.9600 H   0  0  0  0  0  0  0  0  0  0  0  0
  -12.7980  -36.7980   56.1500 H   0  0  0  0  0  0  0  0  0  0  0  0
  -11.6740  -36.1010   56.3500 S   0  0  1  0  0  0  0  0  0  0  0  0
  -12.0100  -36.4230   57.7760 O   0  0  0  0  0  0  0  0  0  0  0  0
  -11.3370  -35.7780   54.9240 O   0  0  0  0  0  0  0  0  0  0  0  0
  -10.2330  -36.4230   56.6170 C   0  0  0  0  0  0  0  0  0  0  0  0
   -9.9270  -36.7370   57.5930 H   0  0  0  0  0  0  0  0  0  0  0  0
   -9.5120  -36.3390   55.8320 H   0  0  0  0  0  0  0  0  0  0  0  0
   -9.2060  -36.6530   56.8080 H   0  0  0  0  0  0  0  0  0  0  0  0
  -17.6890  -25.4500   55.2490 C   0  0  0  0  0  0  0  0  0  0  0  0
  -18.0050  -24.4310   55.1820 H   0  0  0  0  0  0  0  0  0  0  0  0
  -16.6500  -25.6950   55.1710 H   0  0  0  0  0  0  0  0  0  0  0  0
  -16.9670  -24.6750   55.1040 H   0  0  0  0  0  0  0  0  0  0  0  0
  1 14  1  0
  1  2  1  0
  2  7  1  0
  3  2  2  0
  3  8  1  0
  4  3  1  0
  5  6  1  0
  5  4  2  0
  6  1  2  0
  9  5  1  0
 10  6  1  0
 11 15  1  0
 12 14  1  0
 12 11  1  0
 13 12  2  0
 14 16  1  0
 17 22  1  0
 18 19  1  0
 18 17  2  0
 19 20  2  0
 20 11  1  0
 20 21  1  0
 21 25  1  0
 22 21  2  0
 22 26  1  0
 23 18  1  0
 24 19  1  0
 27 28  1  0
 28 36  1  0
 29 37  1  0
 29 38  1  0
 30 31  1  0
 31 17  1  0
 31 32  2  0
 33 39  1  0
 33 30  1  0
 35 28  1  0
 40 33  1  0
 41 34  1  0
 42 34  1  0
 43 27  1  0
 44 43  1  0
 45 43  1  0
 46 43  1  0
 47 48  1  0
 47  4  1  0
 48 54  2  0
 48 49  1  0
 49 50  2  0
 50 51  1  0
 50 56  1  0
 52 53  1  0
 52 51  2  0
 53 58  1  0
 54 52  1  0
 55 49  1  0
 57 53  1  0
 58 63  1  0
 59 60  1  0
 59 58  2  0
 60 61  2  0
 61 68  1  0
 61 62  1  0
 62 66  1  0
 63 62  2  0
 63 67  1  0
 64 59  1  0
 65 60  1  0
 68 70  1  0
 68 71  1  0
 69 68  1  0
 71 74  1  0
 71 72  2  0
 73 71  2  0
 74 77  1  0
 74 75  1  0
 76 74  1  0
 78 47  1  0
 79 78  1  0
 80 78  1  0
 81 78  1  0
M  END
>  <minimizedAffinity>  (11) 
-8.94348431

$$$$

     RDKit          3D

 55 55  0  0  0  0  0  0  0  0999 V2000
  -18.0290  -30.4910   55.8310 N   0  0  0  0  0  2  0  0  0  0  0  0
  -18.8980  -29.9890   54.7170 C   0  0  0  0  0  0  0  0  0  0  0  0
  -18.2770  -29.4530   53.4620 N   0  0  0  0  0  0  0  0  0  0  0  0
  -19.1470  -28.9510   52.3490 C   0  0  0  0  0  3  0  0  0  0  0  0
  -20.6390  -28.9840   52.4910 C   0  0  0  0  0  0  0  0  0  0  0  0
  -21.2620  -29.5200   53.7450 C   0  0  0  0  0  0  0  0  0  0  0  0
  -20.3920  -30.0220   54.8590 N   0  0  0  0  0  0  0  0  0  0  0  0
  -18.4370  -30.8420   56.6550 H   0  0  0  0  0  0  0  0  0  0  0  0
  -18.7190  -28.5820   51.4850 H   0  0  0  0  0  0  0  0  0  0  0  0
  -21.2390  -28.6390   51.7240 H   0  0  0  0  0  0  0  0  0  0  0  0
  -22.7540  -29.5530   53.8870 C   0  0  0  0  0  0  0  0  0  0  0  0
  -23.6060  -28.4870   54.5110 C   0  0  0  0  0  0  0  0  0  0  0  0
  -25.0360  -28.9330   54.4400 N   0  0  0  0  0  0  0  0  0  0  0  0
  -25.0690  -30.2770   53.7710 N   0  0  0  0  0  0  0  0  0  0  0  0
  -26.2010  -31.2000   53.4300 C   0  0  0  0  0  0  0  0  0  0  0  0
  -25.9230  -32.5060   52.7470 C   0  0  0  0  0  0  0  0  0  0  0  0
  -24.5130  -32.8890   52.4060 C   0  0  0  0  0  0  0  0  0  0  0  0
  -23.3810  -31.9660   52.7470 C   0  0  0  0  0  0  0  0  0  0  0  0
  -23.6590  -30.6590   53.4300 C   0  0  0  0  0  0  0  0  0  0  0  0
  -27.1700  -30.9370   53.6650 H   0  0  0  0  0  0  0  0  0  0  0  0
  -24.3220  -33.7880   51.9360 H   0  0  0  0  0  0  0  0  0  0  0  0
  -22.4120  -32.2290   52.5130 H   0  0  0  0  0  0  0  0  0  0  0  0
  -23.1130  -27.2000   55.1020 C   0  0  0  0  0  0  0  0  0  0  0  0
  -21.7940  -27.1590   55.8160 C   0  0  0  0  0  0  0  0  0  0  0  0
  -21.3020  -25.8710   56.4070 C   0  0  0  0  0  0  0  0  0  0  0  0
  -22.1270  -24.6250   56.2850 C   0  0  0  0  0  0  0  0  0  0  0  0
  -21.6350  -23.3380   56.8760 F   0  0  0  0  0  0  0  0  0  0  0  0
  -23.4460  -24.6660   55.5710 C   0  0  0  0  0  0  0  0  0  0  0  0
  -23.9390  -25.9540   54.9800 C   0  0  0  0  0  0  0  0  0  0  0  0
  -21.2260  -28.0160   55.9000 H   0  0  0  0  0  0  0  0  0  0  0  0
  -20.3940  -25.8430   56.8980 H   0  0  0  0  0  0  0  0  0  0  0  0
  -24.0150  -23.8090   55.4870 H   0  0  0  0  0  0  0  0  0  0  0  0
  -24.8470  -25.9820   54.4890 H   0  0  0  0  0  0  0  0  0  0  0  0
  -27.0540  -33.4300   52.4060 C   0  0  0  0  0  0  0  0  0  0  0  0
  -28.1860  -34.3530   52.0640 F   0  0  0  0  0  0  0  0  0  0  0  0
  -27.8780  -32.2570   51.9640 F   0  0  0  0  0  0  0  0  0  0  0  0
  -26.2300  -34.6030   52.8470 F   0  0  0  0  0  0  0  0  0  0  0  0
  -16.5350  -30.4580   55.6900 C   0  0  0  0  0  2  0  0  0  0  0  0
  -16.0250  -31.2710   55.2190 H   0  0  0  0  0  0  0  0  0  0  0  0
  -17.0890  -31.2950   55.3200 H   0  0  0  0  0  0  0  0  0  0  0  0
  -15.7580  -29.2840   56.2080 C   0  0  0  0  0  2  0  0  0  0  0  0
  -15.3350  -29.3150   57.1900 H   0  0  0  0  0  0  0  0  0  0  0  0
  -15.8890  -30.1520   56.8200 H   0  0  0  0  0  0  0  0  0  0  0  0
  -15.5760  -28.0670   55.3490 C   0  0  0  0  0  3  0  0  0  0  0  0
  -15.0250  -28.1360   54.4350 H   0  0  0  0  0  0  0  0  0  0  0  0
  -15.1550  -29.0030   55.0470 H   0  0  0  0  0  0  0  0  0  0  0  0
  -16.1670  -26.7550   55.7750 N   0  0  0  0  0  0  0  0  0  0  0  0
  -15.2670  -25.6000   56.1030 C   0  0  0  0  0  0  0  0  0  0  0  0
  -14.2050  -25.7120   56.0330 H   0  0  0  0  0  0  0  0  0  0  0  0
  -15.6880  -24.6640   56.4060 H   0  0  0  0  0  0  0  0  0  0  0  0
  -14.6260  -24.7760   56.3370 H   0  0  0  0  0  0  0  0  0  0  0  0
  -17.6540  -26.5980   55.8710 C   0  0  0  0  0  0  0  0  0  0  0  0
  -18.0760  -25.6620   56.1750 H   0  0  0  0  0  0  0  0  0  0  0  0
  -18.2960  -27.4220   55.6370 H   0  0  0  0  0  0  0  0  0  0  0  0
  -18.7170  -26.4870   55.9400 H   0  0  0  0  0  0  0  0  0  0  0  0
  1  8  1  0
  2  7  2  0
  2  1  1  0
  3  2  2  0
  4  5  1  0
  4  3  1  0
  5  6  2  0
  6 11  1  0
  6  7  1  0
  9  4  1  0
 10  5  1  0
 11 12  1  0
 12 23  1  0
 13 12  2  0
 14 13  1  0
 15 20  1  0
 15 14  1  0
 16 15  2  0
 17 18  2  0
 17 16  1  0
 18 19  1  0
 19 14  1  0
 19 11  2  0
 21 17  1  0
 22 18  1  0
 23 24  1  0
 24 30  1  0
 24 25  2  0
 25 31  1  0
 26 25  1  0
 26 27  1  0
 28 26  2  0
 29 23  2  0
 29 28  1  0
 32 28  1  0
 33 29  1  0
 34 16  1  0
 34 37  1  0
 35 34  1  0
 36 34  1  0
 39 38  1  0
 40 38  1  0
 41 43  1  0
 41 42  1  0
 44 47  1  0
 45 44  1  0
 46 44  1  0
 47 52  1  0
 47 48  1  0
 48 51  1  0
 48 50  1  0
 49 48  1  0
 52 55  1  0
 52 53  1  0
 54 52  1  0
M  END
>  <minimizedAffinity>  (12) 
-9.43689251

$$$$

     RDKit          3D

 46 45  0  0  0  0  0  0  0  0999 V2000
  -19.7880  -27.9480   55.8700 N   0  0  0  0  0 15  0  0  0  0  0  0
  -20.0480  -26.4720   55.9330 C   0  0  0  0  0  2  0  0  0  0  0  0
  -18.7270  -25.7640   55.8680 N   0  0  0  0  0  2  0  0  0  0  0  0
  -17.6490  -26.8040   55.7660 C   0  0  0  0  0  0  0  0  0  0  0  0
  -16.1560  -26.6950   55.6720 C   0  0  0  0  0  0  0  0  0  0  0  0
  -15.3190  -27.9360   55.5790 N   0  0  0  0  0  0  0  0  0  0  0  0
  -15.9740  -29.2850   55.5800 C   0  0  0  0  0  0  0  0  0  0  0  0
  -17.4670  -29.3940   55.6740 C   0  0  0  0  0  0  0  0  0  0  0  0
  -18.3050  -28.1530   55.7670 C   0  0  0  0  0  3  0  0  0  0  0  0
  -15.3970  -30.1390   55.5160 H   0  0  0  0  0  0  0  0  0  0  0  0
  -21.3930  -25.8190   56.0410 C   0  0  0  0  0  0  0  0  0  0  0  0
  -22.7210  -26.5070   55.9130 N   0  0  0  0  0  0  0  0  0  0  0  0
  -23.7960  -25.4750   56.0880 O   0  0  0  0  0  0  0  0  0  0  0  0
  -23.1340  -24.1500   56.3250 N   0  0  0  0  0  0  0  0  0  0  0  0
  -21.6490  -24.3620   56.2960 C   0  0  0  0  0  0  0  0  0  0  0  0
  -20.6030  -23.3050   56.4870 N   0  0  0  0  0  0  0  0  0  0  0  0
  -19.6490  -23.5430   56.4500 H   0  0  0  0  0  0  0  0  0  0  0  0
  -20.8700  -22.3710   56.6500 H   0  0  0  0  0  0  0  0  0  0  0  0
  -20.8260  -29.0290   55.9050 C   0  0  0  0  0  3  0  0  0  0  0  0
  -21.2050  -29.3780   56.8430 H   0  0  0  0  0  0  0  0  0  0  0  0
  -20.4630  -28.6070   56.8180 H   0  0  0  0  0  0  0  0  0  0  0  0
  -21.3350  -29.6230   54.6250 C   0  0  0  0  0  0  0  0  0  0  0  0
  -20.9560  -29.2740   53.6860 H   0  0  0  0  0  0  0  0  0  0  0  0
  -22.0750  -30.3930   54.6490 H   0  0  0  0  0  0  0  0  0  0  0  0
  -21.6970  -30.0450   53.7110 H   0  0  0  0  0  0  0  0  0  0  0  0
  -15.5010  -25.3460   55.6710 C   0  0  0  0  0  0  0  0  0  0  0  0
  -14.8460  -23.9970   55.6700 C   0  0  0  0  0  0  0  0  0  0  0  0
  -14.1900  -22.6470   55.6690 C   0  0  0  0  0  0  0  0  0  0  0  0
  -13.5700  -22.3530   56.4900 H   0  0  0  0  0  0  0  0  0  0  0  0
  -13.7230  -21.6850   55.6680 H   0  0  0  0  0  0  0  0  0  0  0  0
  -14.4040  -21.7110   54.5170 N   0  0  0  0  0  0  0  0  0  0  0  0
  -13.9580  -20.7930   54.5160 H   0  0  0  0  0  0  0  0  0  0  0  0
  -14.9950  -21.9910   53.7350 H   0  0  0  0  0  0  0  0  0  0  0  0
  -18.1220  -30.7430   55.6750 O   0  0  0  0  0  0  0  0  0  0  0  0
  -17.4200  -31.9180   55.0620 C   0  0  0  0  0  0  0  0  0  0  0  0
  -17.0600  -31.8610   54.0560 H   0  0  0  0  0  0  0  0  0  0  0  0
  -16.9190  -32.7570   54.6250 H   0  0  0  0  0  0  0  0  0  0  0  0
  -17.2230  -33.1730   55.8590 C   0  0  0  0  0  0  0  0  0  0  0  0
  -17.8900  -34.0000   55.7290 H   0  0  0  0  0  0  0  0  0  0  0  0
  -17.0820  -34.0690   56.4280 H   0  0  0  0  0  0  0  0  0  0  0  0
  -16.0910  -33.2700   56.8390 C   0  0  0  0  0  0  0  0  0  0  0  0
  -15.0910  -33.4180   56.4880 H   0  0  0  0  0  0  0  0  0  0  0  0
  -15.2830  -33.3390   57.5380 H   0  0  0  0  0  0  0  0  0  0  0  0
  -16.3610  -33.1590   58.3100 N   0  0  0  0  0  0  0  0  0  0  0  0
  -15.5920  -33.2240   58.9760 H   0  0  0  0  0  0  0  0  0  0  0  0
  -17.3140  -33.0180   58.6450 H   0  0  0  0  0  0  0  0  0  0  0  0
  2 11  1  0
  3  2  1  0
  4  9  1  0
  4  3  1  0
  5  4  2  0
  6  7  2  0
  6  5  1  0
  7  8  1  0
  8 34  1  0
  8  9  2  0
 10  7  1  0
 11 15  1  0
 12 11  2  0
 12 13  1  0
 13 14  1  0
 15 14  2  0
 15 16  1  0
 16 18  1  0
 17 16  1  0
 19 21  1  0
 19 20  1  0
 22 24  1  0
 22 19  1  0
 23 22  1  0
 25 22  1  0
 26  5  1  0
 27 26  3  0
 28 27  1  0
 28 29  1  0
 30 28  1  0
 31 28  1  0
 32 31  1  0
 33 31  1  0
 35 34  1  0
 35 38  1  0
 36 35  1  0
 37 35  1  0
 38 40  1  0
 38 41  1  0
 39 38  1  0
 41 43  1  0
 41 44  1  0
 42 41  1  0
 44 46  1  0
 44 45  1  0
M  END
>  <minimizedAffinity>  (13) 
-9.70449352

$$$$

     RDKit          3D

 48 51  0  0  0  0  0  0  0  0999 V2000
  -19.6800  -28.2850   55.5610 C   0  0  0  0  0  0  0  0  0  0  0  0
  -19.3370  -29.7410   55.6740 C   0  0  0  0  0  0  0  0  0  0  0  0
  -17.9010  -30.1750   55.6720 C   0  0  0  0  0  0  0  0  0  0  0  0
  -16.8090  -29.1530   55.5580 C   0  0  0  0  0  0  0  0  0  0  0  0
  -17.1520  -27.6980   55.4460 C   0  0  0  0  0  0  0  0  0  0  0  0
  -16.0590  -26.6760   55.3320 Cl  0  0  0  0  0  0  0  0  0  0  0  0
  -18.5880  -27.2630   55.4470 C   0  0  0  0  0  0  0  0  0  0  0  0
  -20.0890  -30.4440   55.7520 H   0  0  0  0  0  0  0  0  0  0  0  0
  -17.6650  -31.1770   55.7490 H   0  0  0  0  0  0  0  0  0  0  0  0
  -18.8240  -26.2610   55.3700 H   0  0  0  0  0  0  0  0  0  0  0  0
  -22.9040  -25.9910   55.8720 C   0  0  0  0  0  0  0  0  0  0  0  0
  -23.2560  -24.5650   56.1790 C   0  0  0  0  0  0  0  0  0  0  0  0
  -22.1720  -23.5740   56.4840 N   0  0  0  0  0  0  0  0  0  0  0  0
  -20.7360  -24.0080   56.4820 C   0  0  0  0  0  0  0  0  0  0  0  0
  -20.3840  -25.4340   56.1750 N   0  0  0  0  0  0  0  0  0  0  0  0
  -21.4680  -26.4250   55.8700 C   0  0  0  0  0  0  0  0  0  0  0  0
  -21.1160  -27.8500   55.5630 N   0  0  0  0  0  0  0  0  0  0  0  0
  -24.2430  -24.2660   56.1800 H   0  0  0  0  0  0  0  0  0  0  0  0
  -19.9900  -23.3260   56.6920 H   0  0  0  0  0  0  0  0  0  0  0  0
  -21.8270  -28.5000   55.3630 H   0  0  0  0  0  0  0  0  0  0  0  0
  -25.0710  -27.9730   55.2610 C   0  0  0  0  0  0  0  0  0  0  0  0
  -23.9870  -26.9820   55.5670 C   0  0  0  0  0  0  0  0  0  0  0  0
  -27.3150  -31.3190   51.9800 N   0  0  0  0  0  0  0  0  0  0  0  0
  -27.2770  -30.6370   53.3160 C   0  0  0  0  0  0  0  0  0  0  0  0
  -28.3220  -30.9460   54.3460 N   0  0  0  0  0  0  0  0  0  0  0  0
  -28.2840  -30.2640   55.6810 C   0  0  0  0  0  0  0  0  0  0  0  0
  -27.2010  -29.2730   55.9860 C   0  0  0  0  0  0  0  0  0  0  0  0
  -26.1550  -28.9640   54.9560 C   0  0  0  0  0  0  0  0  0  0  0  0
  -26.1930  -29.6460   53.6210 N   0  0  0  0  0  0  0  0  0  0  0  0
  -28.0270  -31.9700   51.7800 H   0  0  0  0  0  0  0  0  0  0  0  0
  -26.6280  -31.1160   51.3040 H   0  0  0  0  0  0  0  0  0  0  0  0
  -29.0040  -30.4760   56.3900 H   0  0  0  0  0  0  0  0  0  0  0  0
  -27.1740  -28.8030   56.9050 H   0  0  0  0  0  0  0  0  0  0  0  0
  -15.3730  -29.5880   55.5560 O   0  0  0  0  0  0  0  0  0  0  0  0
  -15.0080  -30.9720   56.0030 C   0  0  0  0  0  0  0  0  0  0  0  0
  -15.4090  -31.8230   55.4910 H   0  0  0  0  0  0  0  0  0  0  0  0
  -14.7470  -31.9600   56.3210 H   0  0  0  0  0  0  0  0  0  0  0  0
  -14.0810  -31.1650   57.1660 C   0  0  0  0  0  0  0  0  0  0  0  0
  -14.5900  -30.9990   58.5670 C   0  0  0  0  0  0  0  0  0  0  0  0
  -13.6630  -31.1920   59.7300 C   0  0  0  0  0  0  0  0  0  0  0  0
  -12.2260  -31.5510   59.4920 C   0  0  0  0  0  0  0  0  0  0  0  0
  -11.7160  -31.7170   58.0910 C   0  0  0  0  0  0  0  0  0  0  0  0
  -10.2790  -32.0750   57.8540 F   0  0  0  0  0  0  0  0  0  0  0  0
  -12.6440  -31.5240   56.9280 C   0  0  0  0  0  0  0  0  0  0  0  0
  -15.5790  -30.7530   58.7310 H   0  0  0  0  0  0  0  0  0  0  0  0
  -14.0140  -31.0780   60.6940 H   0  0  0  0  0  0  0  0  0  0  0  0
  -11.5880  -31.6830   60.2930 H   0  0  0  0  0  0  0  0  0  0  0  0
  -12.2930  -31.6380   55.9640 H   0  0  0  0  0  0  0  0  0  0  0  0
  1 17  1  0
  1  2  1  0
  2  8  1  0
  3  2  2  0
  3  9  1  0
  4  3  1  0
  5  7  1  0
  5  4  2  0
  6  5  1  0
  7  1  2  0
 10  7  1  0
 11 12  2  0
 12 18  1  0
 12 13  1  0
 14 13  2  0
 14 19  1  0
 15 14  1  0
 16 11  1  0
 16 15  2  0
 17 16  1  0
 20 17  1  0
 21 22  3  0
 22 11  1  0
 23 24  1  0
 24 29  1  0
 24 25  2  0
 25 26  1  0
 26 27  2  0
 26 32  1  0
 27 33  1  0
 28 21  1  0
 28 27  1  0
 29 28  2  0
 30 23  1  0
 31 23  1  0
 34  4  1  0
 34 35  1  0
 35 37  1  0
 35 38  1  0
 36 35  1  0
 38 39  1  0
 39 45  1  0
 39 40  2  0
 40 46  1  0
 41 40  1  0
 41 47  1  0
 42 41  2  0
 43 42  1  0
 44 38  2  0
 44 42  1  0
 48 44  1  0
M  END
>  <minimizedAffinity>  (14) 
-10.2686195

$$$$

     RDKit          3D

 46 49  0  0  1  0  0  0  0  0999 V2000
  -18.8410  -30.5740   54.9440 N   0  0  0  0  0  0  0  0  0  0  0  0
  -17.3800  -30.4050   55.2390 C   0  0  0  0  0  3  0  0  0  0  0  0
  -16.8170  -29.0350   55.4820 N   0  0  0  0  0  0  0  0  0  0  0  0
  -15.3560  -28.8660   55.7770 C   0  0  0  0  0  0  0  0  0  0  0  0
  -14.4580  -30.0670   55.8310 N   0  0  0  0  0  2  0  0  0  0  0  0
  -15.0210  -31.4360   55.5880 C   0  0  0  0  0  0  0  0  0  0  0  0
  -16.4820  -31.6050   55.2930 C   0  0  0  0  0  0  0  0  0  0  0  0
  -16.7490  -33.0680   55.0980 C   0  0  0  0  0  0  0  0  0  0  0  0
  -15.4530  -33.8030   55.2730 N   0  0  0  0  0  0  0  0  0  0  0  0
  -14.3850  -32.7940   55.5760 N   0  0  0  0  0  0  0  0  0  0  0  0
  -19.2100  -31.4720   54.7850 H   0  0  0  0  0  0  0  0  0  0  0  0
  -14.9690  -27.9240   55.9440 H   0  0  0  0  0  0  0  0  0  0  0  0
  -17.6630  -33.4940   54.8810 H   0  0  0  0  0  0  0  0  0  0  0  0
  -20.1780  -28.7080   56.1610 C   0  0  0  0  0  0  0  0  0  0  0  0
  -19.7390  -29.3740   54.8900 N   0  0  0  0  0  0  0  0  0  0  0  0
  -19.8620  -29.0770   57.0720 H   0  0  0  0  0  0  0  0  0  0  0  0
  -23.3970  -26.4560   55.6030 C   0  0  0  0  0  0  0  0  0  0  0  0
  -22.4990  -27.6560   55.6560 C   0  0  0  0  0  0  0  0  0  0  0  0
  -21.0760  -27.5080   56.1080 C   0  0  0  0  0  0  0  0  0  0  0  0
  -20.5520  -26.1610   56.5060 C   0  0  0  0  0  0  0  0  0  0  0  0
  -21.4500  -24.9600   56.4520 C   0  0  0  0  0  0  0  0  0  0  0  0
  -22.8730  -25.1080   56.0010 C   0  0  0  0  0  0  0  0  0  0  0  0
  -22.8600  -28.5830   55.3820 H   0  0  0  0  0  0  0  0  0  0  0  0
  -19.5730  -26.0590   56.8160 H   0  0  0  0  0  0  0  0  0  0  0  0
  -21.0890  -24.0330   56.7260 H   0  0  0  0  0  0  0  0  0  0  0  0
  -23.7710  -23.9080   55.9480 O   0  0  0  0  0  0  0  0  0  0  0  0
  -24.6600  -24.0000   55.6650 H   0  0  0  0  0  0  0  0  0  0  0  0
  -24.8200  -26.6030   55.1520 O   0  0  0  0  0  0  0  0  0  0  0  0
  -25.4630  -27.9580   55.1290 C   0  0  0  0  0  0  0  0  0  0  0  0
  -24.9070  -28.8190   55.4350 H   0  0  0  0  0  0  0  0  0  0  0  0
  -26.4780  -28.0640   54.8070 H   0  0  0  0  0  0  0  0  0  0  0  0
  -25.9220  -28.9250   55.1130 H   0  0  0  0  0  0  0  0  0  0  0  0
  -12.9360  -33.0920   55.8240 C   0  0  0  0  0  0  0  0  0  0  0  0
  -12.4100  -33.7620   55.1770 H   0  0  0  0  0  0  0  0  0  0  0  0
  -11.9020  -33.3040   56.0000 H   0  0  0  0  0  0  0  0  0  0  0  0
  -12.2260  -32.4500   56.9780 C   0  0  0  0  0  0  0  0  0  0  0  0
  -12.7520  -32.6230   58.3720 C   0  0  0  0  0  0  0  0  0  0  0  0
  -12.0420  -31.9810   59.5270 C   0  0  0  0  0  0  0  0  0  0  0  0
  -10.8060  -31.1660   59.2890 C   0  0  0  0  0  0  0  0  0  0  0  0
  -10.2790  -30.9940   57.8950 C   0  0  0  0  0  0  0  0  0  0  0  0
  -10.9890  -31.6350   56.7390 C   0  0  0  0  0  0  0  0  0  0  0  0
  -13.6030  -33.1830   58.5370 H   0  0  0  0  0  0  0  0  0  0  0  0
  -12.4050  -32.1000   60.4860 H   0  0  0  0  0  0  0  0  0  0  0  0
  -10.3170  -30.7250   60.0830 H   0  0  0  0  0  0  0  0  0  0  0  0
   -9.4280  -30.4330   57.7310 H   0  0  0  0  0  0  0  0  0  0  0  0
  -10.6270  -31.5170   55.7800 H   0  0  0  0  0  0  0  0  0  0  0  0
  2  1  1  0
  2  7  1  0
  2  3  1  0
  3  4  2  0
  4  5  1  0
  4 12  1  0
  6  5  1  0
  7  6  2  0
  8  9  2  0
  8  7  1  0
  9 10  1  0
 10  6  1  0
 10 33  1  0
 11  1  1  0
 13  8  1  0
 14 16  1  0
 15  1  1  0
 15 14  2  0
 17 18  2  0
 17 22  1  0
 18 19  1  0
 19 14  1  0
 19 20  2  0
 20 24  1  0
 21 20  1  0
 21 25  1  0
 22 21  2  0
 23 18  1  0
 26 22  1  0
 27 26  1  0
 28 17  1  0
 29 28  1  0
 29 30  1  0
 31 29  1  0
 32 29  1  0
 33 35  1  0
 33 36  1  0
 34 33  1  0
 36 37  1  0
 37 42  1  0
 37 38  2  0
 38 43  1  0
 39 38  1  0
 39 44  1  0
 40 39  2  0
 41 36  2  0
 41 40  1  0
 45 40  1  0
 46 41  1  0
M  END
>  <minimizedAffinity>  (15) 
-9.14701271

$$$$

     RDKit          3D

 71 69  0  0  1  0  0  0  0  0999 V2000
  -17.2340  -28.9600   54.5120 C   0  0  0  0  0  2  0  0  0  0  0  0
  -17.9570  -27.9250   55.3230 C   0  0  0  0  0  1  0  0  0  0  0  0
  -19.4480  -27.7980   55.2190 C   0  0  0  0  0  3  0  0  0  0  0  0
  -20.2160  -28.7050   54.3050 C   0  0  0  0  0  0  0  0  0  0  0  0
  -19.4930  -29.7400   53.4940 C   0  0  0  0  0  3  0  0  0  0  0  0
  -18.0020  -29.8670   53.5980 C   0  0  0  0  0  0  0  0  0  0  0  0
  -21.7070  -28.5780   54.2010 N   0  0  0  0  0  0  0  0  0  0  0  0
  -22.4750  -29.4850   53.2860 C   0  0  0  0  0  0  0  0  0  0  0  0
  -21.7520  -30.5200   52.4750 O   0  0  0  0  0  0  0  0  0  0  0  0
  -22.4300  -27.5430   55.0110 C   0  0  0  0  0  3  0  0  0  0  0  0
  -21.6610  -26.6360   55.9260 C   0  0  0  0  0  1  0  0  0  0  0  0
  -20.1700  -26.7640   56.0300 C   0  0  0  0  0  1  0  0  0  0  0  0
  -17.4280  -27.3010   55.9530 H   0  0  0  0  0  0  0  0  0  0  0  0
  -20.0220  -30.3640   52.8640 H   0  0  0  0  0  0  0  0  0  0  0  0
  -23.4930  -27.4530   54.9370 H   0  0  0  0  0  0  0  0  0  0  0  0
  -22.9450  -26.8050   55.5900 H   0  0  0  0  0  0  0  0  0  0  0  0
  -22.1770  -25.8980   56.5050 H   0  0  0  0  0  0  0  0  0  0  0  0
  -21.1130  -25.9890   56.5790 H   0  0  0  0  0  0  0  0  0  0  0  0
  -17.2790  -30.9020   52.7870 N   0  0  0  0  0  4  0  0  0  0  0  0
  -16.6060  -32.0550   53.4710 C   0  0  0  0  0  0  0  0  0  0  0  0
  -16.6560  -32.1730   54.9650 N   0  0  0  0  0  0  0  0  0  0  0  0
  -15.9830  -33.3260   55.6490 C   0  0  0  0  0  3  0  0  0  0  0  0
  -15.2600  -34.3610   54.8380 C   0  0  0  0  0  0  0  0  0  0  0  0
  -14.5090  -35.5990   55.2290 C   0  0  0  0  0  0  0  0  0  0  0  0
  -13.9950  -36.2450   53.9770 C   0  0  0  0  0  0  0  0  0  0  0  0
  -14.4290  -35.4070   52.8120 N   0  0  0  0  0  0  0  0  0  0  0  0
  -15.2110  -34.2420   53.3430 C   0  0  0  0  0  0  0  0  0  0  0  0
  -15.8840  -33.0890   52.6600 N   0  0  0  0  0  2  0  0  0  0  0  0
  -17.2470  -30.8240   51.8060 H   0  0  0  0  0  0  0  0  0  0  0  0
  -14.3710  -35.9450   56.1920 H   0  0  0  0  0  0  0  0  0  0  0  0
  -13.4410  -37.1140   53.9270 H   0  0  0  0  0  0  0  0  0  0  0  0
  -14.2340  -35.5890   51.8640 H   0  0  0  0  0  0  0  0  0  0  0  0
  -16.0330  -33.4450   57.1430 N   0  0  0  0  0  0  0  0  0  0  0  0
  -16.6600  -34.0750   57.5670 H   0  0  0  0  0  0  0  0  0  0  0  0
  -15.1270  -32.6040   57.9930 C   0  0  0  0  0  0  0  0  0  0  0  0
  -15.5090  -31.3390   58.7040 C   0  0  0  0  0  0  0  0  0  0  0  0
  -14.2990  -30.8330   59.4310 C   0  0  0  0  0  0  0  0  0  0  0  0
  -13.1690  -31.7850   59.1690 S   0  0  0  0  0  0  0  0  0  0  0  0
  -13.6800  -32.8790   58.2800 C   0  0  0  0  0  0  0  0  0  0  0  0
  -16.4400  -30.8960   58.6950 H   0  0  0  0  0  0  0  0  0  0  0  0
  -14.2520  -29.9800   60.0100 H   0  0  0  0  0  0  0  0  0  0  0  0
  -12.8870  -34.0440   57.7690 C   0  0  0  0  0  0  0  0  0  0  0  0
  -12.0150  -33.8830   56.5580 N   0  0  0  0  0  0  0  0  0  0  0  0
  -12.9640  -35.3690   58.4660 O   0  0  0  0  0  0  0  0  0  0  0  0
  -11.4930  -34.6470   56.2220 H   0  0  0  0  0  0  0  0  0  0  0  0
  -11.9640  -33.0130   56.1000 H   0  0  0  0  0  0  0  0  0  0  0  0
  -18.7600  -26.5000   56.4690 C   0  0  0  0  0  3  0  0  0  0  0  0
  -18.5570  -25.7280   57.1820 H   0  0  0  0  0  0  0  0  0  0  0  0
  -17.9580  -27.0840   56.0680 H   0  0  0  0  0  0  0  0  0  0  0  0
  -17.7540  -26.3120   56.7810 H   0  0  0  0  0  0  0  0  0  0  0  0
  -20.4030  -25.6380   56.9930 C   0  0  0  0  0  0  0  0  0  0  0  0
  -21.3960  -25.2790   57.1670 H   0  0  0  0  0  0  0  0  0  0  0  0
  -19.5770  -25.1930   57.5070 H   0  0  0  0  0  0  0  0  0  0  0  0
  -20.5690  -24.8340   57.6800 H   0  0  0  0  0  0  0  0  0  0  0  0
  -23.9660  -29.3580   53.1820 C   0  0  0  0  0  0  0  0  0  0  0  0
  -24.3970  -28.6610   52.4930 H   0  0  0  0  0  0  0  0  0  0  0  0
  -25.0300  -29.2670   53.1080 H   0  0  0  0  0  0  0  0  0  0  0  0
  -24.8530  -30.2070   54.0430 N   0  0  0  0  0  0  0  0  0  0  0  0
  -25.4450  -29.6390   55.3000 C   0  0  0  0  0  0  0  0  0  0  0  0
  -26.0780  -30.2450   55.9140 H   0  0  0  0  0  0  0  0  0  0  0  0
  -25.2340  -28.6280   55.5810 H   0  0  0  0  0  0  0  0  0  0  0  0
  -25.8670  -29.2340   56.1960 H   0  0  0  0  0  0  0  0  0  0  0  0
  -25.1490  -31.6230   53.6490 C   0  0  0  0  0  0  0  0  0  0  0  0
  -24.7270  -32.0280   52.7530 H   0  0  0  0  0  0  0  0  0  0  0  0
  -25.7820  -32.2290   54.2630 H   0  0  0  0  0  0  0  0  0  0  0  0
  -25.3600  -32.6340   53.3670 H   0  0  0  0  0  0  0  0  0  0  0  0
  -15.7430  -29.0870   54.6160 O   0  0  0  0  0  0  0  0  0  0  0  0
  -15.0910  -29.1890   55.9630 C   0  0  0  0  0  0  0  0  0  0  0  0
  -15.6890  -29.1710   56.8510 H   0  0  0  0  0  0  0  0  0  0  0  0
  -14.0270  -29.2800   56.0380 H   0  0  0  0  0  0  0  0  0  0  0  0
  -14.6260  -29.2610   56.9250 H   0  0  0  0  0  0  0  0  0  0  0  0
  1 67  1  0
  2 13  1  0
  3 12  1  0
  4  3  2  0
  5  6  1  0
  5  4  1  0
  6  1  1  0
  7  4  1  0
  7 10  1  0
  8  7  1  0
  9  8  2  0
 10 16  1  0
 11 17  1  0
 14  5  1  0
 15 10  1  0
 18 51  1  0
 19 20  1  0
 19  6  2  0
 20 21  2  0
 21 22  1  0
 22 33  1  0
 23 24  1  0
 23 22  1  0
 24 30  1  0
 25 24  2  0
 26 27  1  0
 26 25  1  0
 27 23  2  0
 28 27  1  0
 28 20  1  0
 29 19  1  0
 31 25  1  0
 32 26  1  0
 33 34  1  0
 33 35  1  0
 35 39  2  0
 35 36  1  0
 36 37  2  0
 37 41  1  0
 38 37  1  0
 39 38  1  0
 40 36  1  0
 42 39  1  0
 42 44  2  0
 43 42  1  0
 45 43  1  0
 46 43  1  0
 47 50  1  0
 47 48  1  0
 49 47  1  0
 51 52  1  0
 51 53  1  0
 51 54  1  0
 55  8  1  0
 55 58  1  0
 56 55  1  0
 57 55  1  0
 58 59  1  0
 59 61  1  0
 59 60  1  0
 59 62  1  0
 63 58  1  0
 63 65  1  0
 64 63  1  0
 66 63  1  0
 67 68  1  0
 68 70  1  0
 68 69  1  0
 68 71  1  0
M  END
>  <minimizedAffinity>  (16) 
-9.17915154

$$$$

     RDKit          3D

 38 40  0  0  1  0  0  0  0  0999 V2000
  -15.5960  -31.5050   57.2240 C   0  0  0  0  0  0  0  0  0  0  0  0
  -17.0310  -31.7570   56.8670 C   0  0  0  0  0  0  0  0  0  0  0  0
  -17.7500  -30.8220   55.9390 C   0  0  0  0  0  0  0  0  0  0  0  0
  -17.0320  -29.6350   55.3680 C   0  0  0  0  0  0  0  0  0  0  0  0
  -15.5980  -29.3820   55.7240 C   0  0  0  0  0  0  0  0  0  0  0  0
  -14.8790  -30.3170   56.6520 C   0  0  0  0  0  0  0  0  0  0  0  0
  -17.5250  -32.5740   57.2600 H   0  0  0  0  0  0  0  0  0  0  0  0
  -18.7360  -30.9970   55.6930 H   0  0  0  0  0  0  0  0  0  0  0  0
  -15.1040  -28.5650   55.3310 H   0  0  0  0  0  0  0  0  0  0  0  0
  -13.8930  -30.1430   56.8980 H   0  0  0  0  0  0  0  0  0  0  0  0
  -14.8780  -32.4390   58.1510 N   0  0  0  0  0  0  0  0  0  0  0  0
  -15.2680  -33.3160   58.3660 H   0  0  0  0  0  0  0  0  0  0  0  0
  -13.5640  -32.0350   58.7520 S   0  0  2  0  0  0  0  0  0  0  0  0
  -14.2860  -31.2150   59.7800 O   0  0  0  0  0  0  0  0  0  0  0  0
  -12.8420  -32.8550   57.7240 O   0  0  0  0  0  0  0  0  0  0  0  0
  -12.2500  -31.6310   59.3530 C   0  0  0  0  0  0  0  0  0  0  0  0
  -12.2280  -30.9800   60.2030 H   0  0  0  0  0  0  0  0  0  0  0  0
  -11.3360  -31.9930   58.9330 H   0  0  0  0  0  0  0  0  0  0  0  0
  -11.3130  -31.3430   59.7820 H   0  0  0  0  0  0  0  0  0  0  0  0
  -17.7510  -28.7000   54.4400 N   0  0  0  0  0  4  0  0  0  0  0  0
  -17.2510  -28.2210   53.7400 H   0  0  0  0  0  0  0  0  0  0  0  0
  -19.2300  -28.4960   54.5780 C   0  0  0  0  0  0  0  0  0  0  0  0
  -19.7580  -27.2340   55.1920 C   0  0  0  0  0  3  0  0  0  0  0  0
  -18.9340  -26.0930   55.7120 C   0  0  0  0  0  0  0  0  0  0  0  0
  -17.4360  -26.0150   55.7070 O   0  0  0  0  0  0  0  0  0  0  0  0
  -19.8700  -25.0450   56.2360 N   0  0  0  0  0  0  0  0  0  0  0  0
  -21.2740  -25.5380   56.0410 C   0  0  0  0  0  0  0  0  0  0  0  0
  -22.6050  -24.9290   56.3670 C   0  0  0  0  0  0  0  0  0  0  0  0
  -23.8680  -25.6740   56.0480 C   0  0  0  0  0  0  0  0  0  0  0  0
  -23.7990  -27.0260   55.4030 C   0  0  0  0  0  0  0  0  0  0  0  0
  -22.4670  -27.6350   55.0770 C   0  0  0  0  0  0  0  0  0  0  0  0
  -21.2050  -26.8900   55.3960 C   0  0  0  0  0  0  0  0  0  0  0  0
  -19.8840  -29.2240   54.2500 H   0  0  0  0  0  0  0  0  0  0  0  0
  -19.6090  -24.1850   56.6370 H   0  0  0  0  0  0  0  0  0  0  0  0
  -22.6530  -23.9990   56.8100 H   0  0  0  0  0  0  0  0  0  0  0  0
  -24.7850  -25.2550   56.2720 H   0  0  0  0  0  0  0  0  0  0  0  0
  -24.6680  -27.5380   55.1840 H   0  0  0  0  0  0  0  0  0  0  0  0
  -22.4200  -28.5650   54.6340 H   0  0  0  0  0  0  0  0  0  0  0  0
  1 11  1  0
  2  1  1  0
  2  7  1  0
  3  2  2  0
  4  5  2  0
  4  3  1  0
  5  6  1  0
  6 10  1  0
  6  1  2  0
  8  3  1  0
  9  5  1  0
 11 12  1  0
 11 13  1  0
 13 16  1  0
 13 14  2  0
 15 13  2  0
 16 19  1  0
 16 17  1  0
 18 16  1  0
 20 22  2  0
 20  4  1  0
 21 20  1  0
 23 22  1  0
 23 32  1  0
 23 24  1  0
 24 26  1  0
 25 24  2  0
 26 34  1  0
 27 26  1  0
 27 28  1  0
 28 35  1  0
 29 36  1  0
 29 28  2  0
 30 29  1  0
 31 32  1  0
 31 30  2  0
 32 27  2  0
 33 22  1  0
 37 30  1  0
 38 31  1  0
M  END
>  <minimizedAffinity>  (17) 
-8.07781696

$$$$

     RDKit          3D

 41 44  0  0  0  0  0  0  0  0999 V2000
  -17.1860  -30.1080   53.8050 N   0  0  0  0  0  0  0  0  0  0  0  0
  -17.0610  -28.8670   54.6390 C   0  0  0  0  0  0  0  0  0  0  0  0
  -15.7040  -28.3510   55.0180 N   0  0  0  0  0  0  0  0  0  0  0  0
  -15.5800  -27.1110   55.8520 C   0  0  0  0  0  0  0  0  0  0  0  0
  -16.8120  -26.3860   56.3070 C   0  0  0  0  0  0  0  0  0  0  0  0
  -18.1690  -26.9020   55.9280 C   0  0  0  0  0  0  0  0  0  0  0  0
  -19.4000  -26.1770   56.3830 N   0  0  0  0  0  0  0  0  0  0  0  0
  -18.2940  -28.1420   55.0940 N   0  0  0  0  0  0  0  0  0  0  0  0
  -16.3770  -30.5840   53.5070 H   0  0  0  0  0  0  0  0  0  0  0  0
  -14.6470  -26.7560   56.1130 H   0  0  0  0  0  0  0  0  0  0  0  0
  -16.7270  -25.5320   56.8800 H   0  0  0  0  0  0  0  0  0  0  0  0
  -19.3190  -25.3620   56.9300 H   0  0  0  0  0  0  0  0  0  0  0  0
  -20.7570  -26.6930   56.0040 C   0  0  0  0  0  0  0  0  0  0  0  0
  -20.9230  -28.1180   55.5670 C   0  0  0  0  0  0  0  0  0  0  0  0
  -22.2790  -28.6330   55.1880 C   0  0  0  0  0  0  0  0  0  0  0  0
  -23.4700  -27.7240   55.2450 C   0  0  0  0  0  0  0  0  0  0  0  0
  -23.3050  -26.2990   55.6830 C   0  0  0  0  0  0  0  0  0  0  0  0
  -24.2880  -25.1760   55.8370 N   0  0  0  0  0  0  0  0  0  0  0  0
  -23.5380  -23.9660   56.3120 N   0  0  0  0  0  0  0  0  0  0  0  0
  -22.0930  -24.3420   56.4510 C   0  0  0  0  0  0  0  0  0  0  0  0
  -21.9490  -25.7830   56.0620 C   0  0  0  0  0  0  0  0  0  0  0  0
  -20.1030  -28.7430   55.5270 H   0  0  0  0  0  0  0  0  0  0  0  0
  -22.3930  -29.6140   54.8870 H   0  0  0  0  0  0  0  0  0  0  0  0
  -24.4040  -28.0790   54.9850 H   0  0  0  0  0  0  0  0  0  0  0  0
  -25.2540  -25.2250   55.6590 H   0  0  0  0  0  0  0  0  0  0  0  0
  -21.3310  -23.7170   56.7600 H   0  0  0  0  0  0  0  0  0  0  0  0
  -20.4670  -32.3390   53.7430 C   0  0  0  0  0  0  0  0  0  0  0  0
  -21.2560  -31.6560   52.6660 C   0  0  0  0  0  0  0  0  0  0  0  0
  -20.6870  -30.4550   51.9680 C   0  0  0  0  0  0  0  0  0  0  0  0
  -19.3300  -29.9400   52.3480 C   0  0  0  0  0  0  0  0  0  0  0  0
  -18.5420  -30.6240   53.4260 C   0  0  0  0  0  0  0  0  0  0  0  0
  -19.1110  -31.8240   54.1240 C   0  0  0  0  0  0  0  0  0  0  0  0
  -22.1880  -32.0110   52.4050 H   0  0  0  0  0  0  0  0  0  0  0  0
  -21.2290  -29.9850   51.2270 H   0  0  0  0  0  0  0  0  0  0  0  0
  -18.9390  -29.1130   51.8680 H   0  0  0  0  0  0  0  0  0  0  0  0
  -18.5680  -32.2940   54.8650 H   0  0  0  0  0  0  0  0  0  0  0  0
  -22.5180  -33.6620   54.6350 N   0  0  0  0  0  0  0  0  0  0  0  0
  -21.0360  -33.5400   54.4420 C   0  0  0  0  0  0  0  0  0  0  0  0
  -20.1220  -34.6160   54.9460 O   0  0  0  0  0  0  0  0  0  0  0  0
  -23.1180  -32.9550   54.3040 H   0  0  0  0  0  0  0  0  0  0  0  0
  -22.8910  -34.4500   55.0930 H   0  0  0  0  0  0  0  0  0  0  0  0
  1  2  1  0
  2  3  2  0
  2  8  1  0
  3  4  1  0
  4 10  1  0
  4  5  2  0
  5 11  1  0
  6  5  1  0
  6  7  1  0
  7 12  1  0
  8  6  2  0
  9  1  1  0
 13 21  1  0
 13  7  1  0
 14 13  2  0
 15 16  2  0
 15 14  1  0
 16 17  1  0
 17 18  1  0
 17 21  2  0
 18 19  1  0
 19 20  2  0
 20 26  1  0
 21 20  1  0
 22 14  1  0
 23 15  1  0
 24 16  1  0
 25 18  1  0
 27 32  1  0
 27 38  1  0
 28 27  2  0
 29 30  2  0
 29 28  1  0
 30 31  1  0
 31  1  1  0
 31 32  2  0
 32 36  1  0
 33 28  1  0
 34 29  1  0
 35 30  1  0
 37 41  1  0
 38 37  1  0
 38 39  2  0
 40 37  1  0
M  END
>  <minimizedAffinity>  (18) 
-8.63791752

$$$$

     RDKit          3D

 47 51  0  0  0  0  0  0  0  0999 V2000
  -22.4800  -25.3980   55.9670 C   0  0  0  0  0  0  0  0  0  0  0  0
  -21.0970  -25.1030   56.4670 C   0  0  0  0  0  0  0  0  0  0  0  0
  -19.9840  -26.0750   56.2120 C   0  0  0  0  0  0  0  0  0  0  0  0
  -20.2530  -27.3420   55.4570 C   0  0  0  0  0  0  0  0  0  0  0  0
  -19.3630  -28.4810   55.0560 C   0  0  0  0  0  0  0  0  0  0  0  0
  -20.1950  -29.4800   54.3090 C   0  0  0  0  0  0  0  0  0  0  0  0
  -21.6000  -28.9590   54.2470 N   0  0  0  0  0  0  0  0  0  0  0  0
  -21.6360  -27.6380   54.9560 N   0  0  0  0  0  0  0  0  0  0  0  0
  -22.7490  -26.6660   55.2110 N   0  0  0  0  0  0  0  0  0  0  0  0
  -20.9120  -24.2300   56.9870 H   0  0  0  0  0  0  0  0  0  0  0  0
  -19.0320  -25.8710   56.5560 H   0  0  0  0  0  0  0  0  0  0  0  0
  -19.7080  -30.7730   53.7250 C   0  0  0  0  0  0  0  0  0  0  0  0
  -20.2320  -32.0770   54.2500 C   0  0  0  0  0  0  0  0  0  0  0  0
  -19.7450  -33.3710   53.6660 C   0  0  0  0  0  0  0  0  0  0  0  0
  -18.7330  -33.3600   52.5590 C   0  0  0  0  0  0  0  0  0  0  0  0
  -18.2460  -34.6530   51.9750 F   0  0  0  0  0  0  0  0  0  0  0  0
  -18.2090  -32.0560   52.0340 C   0  0  0  0  0  0  0  0  0  0  0  0
  -18.6960  -30.7630   52.6180 C   0  0  0  0  0  0  0  0  0  0  0  0
  -20.9280  -32.0850   55.0120 H   0  0  0  0  0  0  0  0  0  0  0  0
  -20.1050  -34.2680   54.0270 H   0  0  0  0  0  0  0  0  0  0  0  0
  -17.5130  -32.0480   51.2720 H   0  0  0  0  0  0  0  0  0  0  0  0
  -18.3360  -29.8650   52.2570 H   0  0  0  0  0  0  0  0  0  0  0  0
  -17.8960  -28.6000   55.3520 C   0  0  0  0  0  0  0  0  0  0  0  0
  -17.0020  -27.4060   55.1960 C   0  0  0  0  0  0  0  0  0  0  0  0
  -15.5360  -27.5250   55.4920 C   0  0  0  0  0  0  0  0  0  0  0  0
  -14.9650  -28.8370   55.9430 N   0  0  0  0  0  0  0  0  0  0  0  0
  -15.8600  -30.0300   56.0990 C   0  0  0  0  0  0  0  0  0  0  0  0
  -15.2900  -31.3420   56.5490 N   0  0  0  0  0  0  0  0  0  0  0  0
  -17.3260  -29.9110   55.8030 N   0  0  0  0  0  0  0  0  0  0  0  0
  -17.3940  -26.5040   54.8860 H   0  0  0  0  0  0  0  0  0  0  0  0
  -14.9190  -26.7030   55.3850 H   0  0  0  0  0  0  0  0  0  0  0  0
  -15.8770  -32.1250   56.6510 H   0  0  0  0  0  0  0  0  0  0  0  0
  -13.8240  -31.4600   56.8450 C   0  0  0  0  0  0  0  0  0  0  0  0
  -13.3510  -31.5510   58.2650 C   0  0  0  0  0  0  0  0  0  0  0  0
  -11.8840  -31.6700   58.5610 C   0  0  0  0  0  0  0  0  0  0  0  0
  -10.8930  -31.6980   57.4360 C   0  0  0  0  0  0  0  0  0  0  0  0
  -11.3660  -31.6070   56.0150 C   0  0  0  0  0  0  0  0  0  0  0  0
  -12.8320  -31.4880   55.7200 C   0  0  0  0  0  0  0  0  0  0  0  0
  -14.0320  -31.5320   59.0390 H   0  0  0  0  0  0  0  0  0  0  0  0
  -11.5590  -31.7320   59.5380 H   0  0  0  0  0  0  0  0  0  0  0  0
   -9.8840  -31.7790   57.6390 H   0  0  0  0  0  0  0  0  0  0  0  0
  -10.6840  -31.6260   55.2420 H   0  0  0  0  0  0  0  0  0  0  0  0
  -13.1580  -31.4260   54.7430 H   0  0  0  0  0  0  0  0  0  0  0  0
  -23.5940  -24.4260   56.2220 C   0  0  0  0  0  0  0  0  0  0  0  0
  -23.4010  -23.5210   56.7600 H   0  0  0  0  0  0  0  0  0  0  0  0
  -24.5800  -24.6370   55.8640 H   0  0  0  0  0  0  0  0  0  0  0  0
  -24.3880  -23.7320   56.4030 H   0  0  0  0  0  0  0  0  0  0  0  0
  1 44  1  0
  1  2  1  0
  2 10  1  0
  3  2  2  0
  3 11  1  0
  4  3  1  0
  5 23  1  0
  5  4  2  0
  6  5  1  0
  7  6  2  0
  7  8  1  0
  8  9  1  0
  8  4  1  0
  9  1  2  0
 12 13  1  0
 12  6  1  0
 13 19  1  0
 14 20  1  0
 14 13  2  0
 15 14  1  0
 16 15  1  0
 17 15  2  0
 17 18  1  0
 18 12  2  0
 21 17  1  0
 22 18  1  0
 23 29  2  0
 24 23  1  0
 24 25  2  0
 25 26  1  0
 26 27  2  0
 27 28  1  0
 28 32  1  0
 28 33  1  0
 29 27  1  0
 30 24  1  0
 31 25  1  0
 33 34  1  0
 34 35  2  0
 34 39  1  0
 35 40  1  0
 36 41  1  0
 36 35  1  0
 37 36  2  0
 38 37  1  0
 38 33  2  0
 42 37  1  0
 43 38  1  0
 44 47  1  0
 44 45  1  0
 46 44  1  0
M  END
>  <minimizedAffinity>  (19) 
-8.71541023

$$$$

     RDKit          3D

 36 38  0  0  0  0  0  0  0  0999 V2000
  -19.2550  -28.7650   54.2150 C   0  0  0  0  0  0  0  0  0  0  0  0
  -20.6130  -28.7310   54.8500 C   0  0  0  0  0  0  0  0  0  0  0  0
  -21.5640  -29.4670   53.9530 C   0  0  0  0  0  0  0  0  0  0  0  0
  -23.0280  -29.6770   54.2020 O   0  0  0  0  0  0  0  0  0  0  0  0
  -20.7930  -29.9560   52.7620 N   0  0  0  0  0  0  0  0  0  0  0  0
  -19.3660  -29.5220   52.9240 C   0  0  0  0  0  0  0  0  0  0  0  0
  -18.2470  -29.7970   51.9650 O   0  0  0  0  0  0  0  0  0  0  0  0
  -21.1600  -30.4710   52.0080 H   0  0  0  0  0  0  0  0  0  0  0  0
  -16.8480  -29.0230   55.1560 C   0  0  0  0  0  0  0  0  0  0  0  0
  -15.5980  -28.4080   55.7130 C   0  0  0  0  0  0  0  0  0  0  0  0
  -15.5060  -26.9210   55.8850 C   0  0  0  0  0  0  0  0  0  0  0  0
  -16.6640  -26.0480   55.5000 C   0  0  0  0  0  0  0  0  0  0  0  0
  -17.9140  -26.6630   54.9440 C   0  0  0  0  0  0  0  0  0  0  0  0
  -18.0060  -28.1500   54.7710 C   0  0  0  0  0  0  0  0  0  0  0  0
  -14.8010  -29.0080   55.9780 H   0  0  0  0  0  0  0  0  0  0  0  0
  -14.6460  -26.4980   56.2680 H   0  0  0  0  0  0  0  0  0  0  0  0
  -16.6010  -25.0250   55.6190 H   0  0  0  0  0  0  0  0  0  0  0  0
  -18.7110  -26.0630   54.6790 H   0  0  0  0  0  0  0  0  0  0  0  0
  -16.9390  -30.5100   54.9840 O   0  0  0  0  0  0  0  0  0  0  0  0
  -17.4260  -31.3670   56.1150 C   0  0  0  0  0  0  0  0  0  0  0  0
  -17.7070  -30.9180   57.0450 H   0  0  0  0  0  0  0  0  0  0  0  0
  -17.4910  -32.4280   55.9920 H   0  0  0  0  0  0  0  0  0  0  0  0
  -17.7730  -31.9790   56.9220 H   0  0  0  0  0  0  0  0  0  0  0  0
  -20.9600  -28.0760   56.1540 N   0  0  0  0  0  0  0  0  0  0  0  0
  -20.7550  -28.5300   57.0030 H   0  0  0  0  0  0  0  0  0  0  0  0
  -21.6200  -26.7290   56.1650 C   0  0  0  0  0  0  0  0  0  0  0  0
  -20.8310  -25.5100   56.5430 C   0  0  0  0  0  0  0  0  0  0  0  0
  -21.4910  -24.1640   56.5540 C   0  0  0  0  0  0  0  0  0  0  0  0
  -22.9390  -24.0350   56.1880 C   0  0  0  0  0  0  0  0  0  0  0  0
  -23.7290  -25.2530   55.8100 C   0  0  0  0  0  0  0  0  0  0  0  0
  -23.0690  -26.6000   55.7990 C   0  0  0  0  0  0  0  0  0  0  0  0
  -19.8340  -25.5990   56.7950 H   0  0  0  0  0  0  0  0  0  0  0  0
  -20.9470  -23.3250   56.8140 H   0  0  0  0  0  0  0  0  0  0  0  0
  -23.3930  -23.1080   56.1950 H   0  0  0  0  0  0  0  0  0  0  0  0
  -24.7250  -25.1640   55.5580 H   0  0  0  0  0  0  0  0  0  0  0  0
  -23.6120  -27.4380   55.5390 H   0  0  0  0  0  0  0  0  0  0  0  0
  1 14  1  0
  1  2  2  0
  2 24  1  0
  3  4  2  0
  3  2  1  0
  5  6  1  0
  5  3  1  0
  6  1  1  0
  7  6  2  0
  8  5  1  0
  9 10  1  0
 10 11  2  0
 10 15  1  0
 11 16  1  0
 12 17  1  0
 12 11  1  0
 13 12  2  0
 14 13  1  0
 14  9  2  0
 18 13  1  0
 19  9  1  0
 19 20  1  0
 20 23  1  0
 20 21  1  0
 22 20  1  0
 24 26  1  0
 24 25  1  0
 26 27  1  0
 27 28  2  0
 27 32  1  0
 28 33  1  0
 29 34  1  0
 29 28  1  0
 30 29  2  0
 31 30  1  0
 31 26  2  0
 35 30  1  0
 36 31  1  0
M  END
>  <minimizedAffinity>  (20) 
-7.36346579

$$$$

     RDKit          3D

 47 41  0  0  0  0  0  0  0  0999 V2000
  -17.5390  -29.3160   54.7760 N   0  0  0  0  0 15  0  0  0  0  0  0
  -16.7300  -28.3510   55.5920 C   0  0  0  0  0  2  0  0  0  0  0  0
  -17.6440  -27.2570   56.0580 N   0  0  0  0  0  2  0  0  0  0  0  0
  -19.0190  -27.5460   55.5310 C   0  0  0  0  0  0  0  0  0  0  0  0
  -18.9540  -28.8180   54.7390 C   0  0  0  0  0  3  0  0  0  0  0  0
  -15.7210  -28.4260   55.7960 H   0  0  0  0  0  0  0  0  0  0  0  0
  -15.9950  -33.0470   52.7920 N   0  0  0  0  0  1  0  0  0  0  0  0
  -15.7810  -32.8360   54.2610 C   0  0  0  0  0  3  0  0  0  0  0  0
  -16.2950  -31.5920   54.9230 C   0  0  0  0  0  2  0  0  0  0  0  0
  -17.0250  -30.5600   54.1150 C   0  0  0  0  0  1  0  0  0  0  0  0
  -17.2390  -30.7710   52.6450 C   0  0  0  0  0  2  0  0  0  0  0  0
  -16.7240  -32.0150   51.9840 C   0  0  0  0  0  2  0  0  0  0  0  0
  -15.2600  -33.5720   54.8370 H   0  0  0  0  0  0  0  0  0  0  0  0
  -15.6270  -32.6850   55.3090 H   0  0  0  0  0  0  0  0  0  0  0  0
  -16.1420  -31.4410   55.9710 H   0  0  0  0  0  0  0  0  0  0  0  0
  -16.6620  -30.7050   55.3940 H   0  0  0  0  0  0  0  0  0  0  0  0
  -17.5450  -29.8230   53.5380 H   0  0  0  0  0  0  0  0  0  0  0  0
  -17.7590  -30.0350   52.0690 H   0  0  0  0  0  0  0  0  0  0  0  0
  -17.3920  -30.9220   51.5970 H   0  0  0  0  0  0  0  0  0  0  0  0
  -16.8770  -32.1660   50.9350 H   0  0  0  0  0  0  0  0  0  0  0  0
  -16.3570  -32.9020   51.5120 H   0  0  0  0  0  0  0  0  0  0  0  0
  -15.4800  -34.2910   52.1300 C   0  0  0  0  0  3  0  0  0  0  0  0
  -14.9600  -35.0280   52.7060 H   0  0  0  0  0  0  0  0  0  0  0  0
  -15.6330  -34.4420   51.0810 H   0  0  0  0  0  0  0  0  0  0  0  0
  -15.1130  -35.1790   51.6580 H   0  0  0  0  0  0  0  0  0  0  0  0
  -20.2430  -26.7090   55.7570 C   0  0  0  0  0  0  0  0  0  0  0  0
  -21.6050  -27.3050   55.5610 C   0  0  0  0  0  0  0  0  0  0  0  0
  -22.8300  -26.4680   55.7860 C   0  0  0  0  0  0  0  0  0  0  0  0
  -22.6920  -25.0350   56.2080 C   0  0  0  0  0  0  0  0  0  0  0  0
  -23.9160  -24.1990   56.4330 F   0  0  0  0  0  0  0  0  0  0  0  0
  -21.3290  -24.4390   56.4040 C   0  0  0  0  0  0  0  0  0  0  0  0
  -20.1050  -25.2760   56.1780 C   0  0  0  0  0  0  0  0  0  0  0  0
  -21.7000  -28.2910   55.2710 H   0  0  0  0  0  0  0  0  0  0  0  0
  -23.7670  -26.8780   55.6520 H   0  0  0  0  0  0  0  0  0  0  0  0
  -21.2350  -23.4540   56.6930 H   0  0  0  0  0  0  0  0  0  0  0  0
  -19.1670  -24.8660   56.3130 H   0  0  0  0  0  0  0  0  0  0  0  0
  -20.1020  -29.4770   54.0330 C   0  0  0  0  0  0  0  0  0  0  0  0
  -20.6860  -28.8500   52.8030 C   0  0  0  0  0  0  0  0  0  0  0  0
  -21.8350  -29.5090   52.0970 C   0  0  0  0  0  3  0  0  0  0  0  0
  -22.3970  -30.7960   52.6230 N   0  0  0  0  0  0  0  0  0  0  0  0
  -21.8120  -31.4240   53.8530 C   0  0  0  0  0  0  0  0  0  0  0  0
  -22.3760  -32.7110   54.3790 N   0  0  0  0  0  0  0  0  0  0  0  0
  -20.6650  -30.7640   54.5590 N   0  0  0  0  0  2  0  0  0  0  0  0
  -20.2990  -27.9640   52.4410 H   0  0  0  0  0  0  0  0  0  0  0  0
  -22.2360  -29.0780   51.2510 H   0  0  0  0  0  0  0  0  0  0  0  0
  -23.1290  -33.1440   53.9160 H   0  0  0  0  0  0  0  0  0  0  0  0
  -21.9920  -33.1230   55.1870 H   0  0  0  0  0  0  0  0  0  0  0  0
  2  6  1  0
  2  3  1  0
  4 26  1  0
  4  3  1  0
  5  4  2  0
  7  8  1  0
  8 13  1  0
  8 14  1  0
  9 16  1  0
  9 15  1  0
 17 10  1  0
 18 11  1  0
 19 11  1  0
 20 12  1  0
 21 12  1  0
 22 23  1  0
 24 22  1  0
 25 22  1  0
 26 32  1  0
 27 26  2  0
 27 28  1  0
 28 29  2  0
 29 31  1  0
 29 30  1  0
 31 35  1  0
 32 36  1  0
 32 31  2  0
 33 27  1  0
 34 28  1  0
 37 43  1  0
 37  5  1  0
 38 37  2  0
 39 40  1  0
 39 38  1  0
 40 41  2  0
 41 42  1  0
 41 43  1  0
 42 47  1  0
 44 38  1  0
 45 39  1  0
 46 42  1  0
M  END
>  <minimizedAffinity>  (21) 
-8.09039116

$$$$

     RDKit          3D

 37 39  0  0  0  0  0  0  0  0999 V2000
  -18.4870  -29.0010   55.5060 C   0  0  0  0  0  0  0  0  0  0  0  0
  -19.9340  -28.6350   55.6630 C   0  0  0  0  0  0  0  0  0  0  0  0
  -20.0240  -27.1430   55.7880 C   0  0  0  0  0  0  0  0  0  0  0  0
  -18.6330  -26.5870   55.7070 N   0  0  0  0  0  0  0  0  0  0  0  0
  -17.6830  -27.7350   55.5330 N   0  0  0  0  0  0  0  0  0  0  0  0
  -20.7270  -29.2950   55.6830 H   0  0  0  0  0  0  0  0  0  0  0  0
  -16.7040  -27.6690   55.4510 H   0  0  0  0  0  0  0  0  0  0  0  0
  -21.2830  -26.3480   55.9620 C   0  0  0  0  0  0  0  0  0  0  0  0
  -21.2190  -24.9540   56.5150 C   0  0  0  0  0  0  0  0  0  0  0  0
  -22.4780  -24.1590   56.6890 C   0  0  0  0  0  0  0  0  0  0  0  0
  -23.8020  -24.7560   56.3100 C   0  0  0  0  0  0  0  0  0  0  0  0
  -23.8650  -26.1480   55.7580 C   0  0  0  0  0  0  0  0  0  0  0  0
  -22.6050  -26.9450   55.5830 C   0  0  0  0  0  0  0  0  0  0  0  0
  -20.3090  -24.5440   56.7750 H   0  0  0  0  0  0  0  0  0  0  0  0
  -22.4350  -23.2000   57.0690 H   0  0  0  0  0  0  0  0  0  0  0  0
  -24.6670  -24.2080   56.4300 H   0  0  0  0  0  0  0  0  0  0  0  0
  -22.6500  -27.9030   55.2030 H   0  0  0  0  0  0  0  0  0  0  0  0
  -25.1880  -26.7450   55.3790 O   0  0  0  0  0  0  0  0  0  0  0  0
  -25.9740  -26.2480   55.4880 H   0  0  0  0  0  0  0  0  0  0  0  0
  -17.9410  -30.3890   55.3490 N   0  0  0  0  0  0  0  0  0  0  0  0
  -18.3380  -31.0030   54.6890 H   0  0  0  0  0  0  0  0  0  0  0  0
  -14.4880  -31.7490   57.8940 C   0  0  0  0  0  0  0  0  0  0  0  0
  -14.2670  -30.7360   56.8100 C   0  0  0  0  0  0  0  0  0  0  0  0
  -15.4180  -30.2830   55.9620 C   0  0  0  0  0  0  0  0  0  0  0  0
  -16.7900  -30.8430   56.1970 C   0  0  0  0  0  0  0  0  0  0  0  0
  -17.0100  -31.8560   57.2810 C   0  0  0  0  0  0  0  0  0  0  0  0
  -15.8590  -32.3090   58.1290 C   0  0  0  0  0  0  0  0  0  0  0  0
  -13.3240  -30.3500   56.6480 H   0  0  0  0  0  0  0  0  0  0  0  0
  -15.2670  -29.5850   55.2160 H   0  0  0  0  0  0  0  0  0  0  0  0
  -17.9540  -32.2410   57.4430 H   0  0  0  0  0  0  0  0  0  0  0  0
  -16.0110  -33.0070   58.8750 H   0  0  0  0  0  0  0  0  0  0  0  0
  -13.3360  -32.2020   58.7420 S   0  0  1  0  0  0  0  0  0  0  0  0
  -12.8110  -33.0140   57.5950 O   0  0  0  0  0  0  0  0  0  0  0  0
  -13.8620  -31.3910   59.8890 O   0  0  0  0  0  0  0  0  0  0  0  0
  -12.1850  -32.6560   59.5900 N   0  0  0  0  0  0  0  0  0  0  0  0
  -11.4850  -33.2870   59.2040 H   0  0  0  0  0  0  0  0  0  0  0  0
  -12.1040  -32.3320   60.5540 H   0  0  0  0  0  0  0  0  0  0  0  0
  1  5  1  0
  1  2  2  0
  2  6  1  0
  2  3  1  0
  3  8  1  0
  4  3  2  0
  5  4  1  0
  7  5  1  0
  8  9  1  0
  9 10  2  0
  9 14  1  0
 10 15  1  0
 11 16  1  0
 11 10  1  0
 12 11  2  0
 13 12  1  0
 13  8  2  0
 17 13  1  0
 18 19  1  0
 18 12  1  0
 20  1  1  0
 20 25  1  0
 21 20  1  0
 22 27  1  0
 22 32  1  0
 23 22  2  0
 24 25  2  0
 24 23  1  0
 25 26  1  0
 26 30  1  0
 26 27  2  0
 27 31  1  0
 28 23  1  0
 29 24  1  0
 32 35  1  0
 32 34  2  0
 33 32  2  0
 35 37  1  0
 36 35  1  0
M  END
>  <minimizedAffinity>  (22) 
-8.48754501

$$$$

     RDKit          3D

 53 52  0  0  0  0  0  0  0  0999 V2000
  -14.1220  -33.0120   55.3120 N   0  0  0  0  0  0  0  0  0  0  0  0
  -15.3300  -32.1240   55.3620 C   0  0  0  0  0  0  0  0  0  0  0  0
  -16.7540  -32.5790   55.4810 N   0  0  0  0  0  0  0  0  0  0  0  0
  -17.6300  -31.3610   55.4950 C   0  0  0  0  0  0  0  0  0  0  0  0
  -16.7470  -30.1540   55.3850 C   0  0  0  0  0  0  0  0  0  0  0  0
  -15.3260  -30.6250   55.3020 O   0  0  0  0  0  0  0  0  0  0  0  0
  -14.2280  -33.9890   55.3580 H   0  0  0  0  0  0  0  0  0  0  0  0
  -18.6590  -31.3560   55.5680 H   0  0  0  0  0  0  0  0  0  0  0  0
  -17.2060  -28.7260   55.3600 C   0  0  0  0  0  0  0  0  0  0  0  0
  -16.1990  -27.6160   55.2900 C   0  0  0  0  0  0  0  0  0  0  0  0
  -16.6580  -26.1880   55.2660 C   0  0  0  0  0  0  0  0  0  0  0  0
  -18.1220  -25.8700   55.3120 C   0  0  0  0  0  0  0  0  0  0  0  0
  -19.1290  -26.9800   55.3820 C   0  0  0  0  0  0  0  0  0  0  0  0
  -18.6710  -28.4070   55.4060 C   0  0  0  0  0  0  0  0  0  0  0  0
  -15.1910  -27.8350   55.2580 H   0  0  0  0  0  0  0  0  0  0  0  0
  -15.9640  -25.4250   55.2180 H   0  0  0  0  0  0  0  0  0  0  0  0
  -18.4370  -24.8880   55.2950 H   0  0  0  0  0  0  0  0  0  0  0  0
  -19.3640  -29.1710   55.4550 H   0  0  0  0  0  0  0  0  0  0  0  0
  -20.5940  -26.6610   55.4280 C   0  0  0  0  0  0  0  0  0  0  0  0
  -21.5660  -27.4820   54.6330 C   0  0  0  0  0  0  0  0  0  0  0  0
  -23.0310  -27.1630   54.6790 C   0  0  0  0  0  0  0  0  0  0  0  0
  -23.5250  -26.0230   55.5210 C   0  0  0  0  0  0  0  0  0  0  0  0
  -22.5520  -25.2030   56.3160 C   0  0  0  0  0  0  0  0  0  0  0  0
  -21.0880  -25.5210   56.2700 C   0  0  0  0  0  0  0  0  0  0  0  0
  -20.1160  -24.7010   57.0650 F   0  0  0  0  0  0  0  0  0  0  0  0
  -21.2260  -28.2660   54.0540 H   0  0  0  0  0  0  0  0  0  0  0  0
  -23.7000  -27.7280   54.1320 H   0  0  0  0  0  0  0  0  0  0  0  0
  -24.5320  -25.8040   55.5530 H   0  0  0  0  0  0  0  0  0  0  0  0
  -22.8920  -24.4180   56.8950 H   0  0  0  0  0  0  0  0  0  0  0  0
  -10.6440  -31.3770   56.3000 C   0  0  0  0  0  3  0  0  0  0  0  0
  -10.0160  -31.2070   54.9480 C   0  0  0  0  0  0  0  0  0  0  0  0
  -10.7580  -31.6380   53.7180 C   0  0  0  0  0  0  0  0  0  0  0  0
  -12.1260  -32.2400   53.8390 C   0  0  0  0  0  0  0  0  0  0  0  0
  -12.7540  -32.4100   55.1910 C   0  0  0  0  0  0  0  0  0  0  0  0
  -12.0120  -31.9790   56.4210 C   0  0  0  0  0  0  0  0  0  0  0  0
   -9.0750  -30.7930   54.8650 H   0  0  0  0  0  0  0  0  0  0  0  0
  -10.3260  -31.5210   52.7870 H   0  0  0  0  0  0  0  0  0  0  0  0
  -12.4440  -32.0970   57.3510 H   0  0  0  0  0  0  0  0  0  0  0  0
   -9.9020  -30.9460   57.5310 S   0  0  0  0  0 15  0  0  0  0  0  0
  -10.2050  -32.2660   58.1760 O   0  0  0  0  0 15  0  0  0  0  0  0
   -9.6000  -29.6260   56.8860 O   0  0  0  0  0 15  0  0  0  0  0  0
   -9.1610  -30.5150   58.7610 C   0  0  0  0  0  3  0  0  0  0  0  0
   -8.0960  -30.6090   58.8050 H   0  0  0  0  0  0  0  0  0  0  0  0
   -8.6250  -30.9170   57.9270 H   0  0  0  0  0  0  0  0  0  0  0  0
   -9.9130  -29.9510   59.9310 C   0  0  0  0  0  0  0  0  0  0  0  0
   -9.3840  -29.6430   60.8090 H   0  0  0  0  0  0  0  0  0  0  0  0
  -10.9780  -29.8560   59.8870 H   0  0  0  0  0  0  0  0  0  0  0  0
  -10.4490  -29.5490   60.7650 H   0  0  0  0  0  0  0  0  0  0  0  0
  -12.8680  -32.6710   52.6080 O   0  0  0  0  0  0  0  0  0  0  0  0
  -12.7290  -34.0770   52.1030 C   0  0  0  0  0  0  0  0  0  0  0  0
  -13.2580  -34.3850   51.2250 H   0  0  0  0  0  0  0  0  0  0  0  0
  -12.1020  -34.7720   52.6210 H   0  0  0  0  0  0  0  0  0  0  0  0
  -12.6310  -35.0800   51.7430 H   0  0  0  0  0  0  0  0  0  0  0  0
  1  7  1  0
  1  2  1  0
  2  3  2  0
  3  4  1  0
  4  8  1  0
  5  4  2  0
  6  2  1  0
  6  5  1  0
  9  5  1  0
  9 14  1  0
 10  9  2  0
 11 10  1  0
 11 12  2  0
 12 13  1  0
 13 14  2  0
 13 19  1  0
 14 18  1  0
 15 10  1  0
 16 11  1  0
 17 12  1  0
 19 24  1  0
 20 21  1  0
 20 19  2  0
 21 22  2  0
 22 28  1  0
 22 23  1  0
 23 29  1  0
 24 23  2  0
 24 25  1  0
 26 20  1  0
 27 21  1  0
 30 35  1  0
 31 30  2  0
 32 33  2  0
 32 31  1  0
 33 34  1  0
 34  1  1  0
 34 35  2  0
 35 38  1  0
 36 31  1  0
 37 32  1  0
 42 43  1  0
 42 45  1  0
 44 42  1  0
 45 48  1  0
 45 46  1  0
 47 45  1  0
 49 33  1  0
 50 49  1  0
 50 52  1  0
 51 50  1  0
 53 50  1  0
M  END
>  <minimizedAffinity>  (23) 
-9.59816837

$$$$

     RDKit          3D

 34 30  0  0  0  0  0  0  0  0999 V2000
  -23.5950  -26.3530   55.5770 C   0  0  0  0  0  0  0  0  0  0  0  0
  -22.6080  -27.3580   55.0620 C   0  0  0  0  0  0  0  0  0  0  0  0
  -23.3650  -28.5890   54.6610 S   0  0  0  0  0  0  0  0  0  0  0  0
  -24.8210  -28.3450   54.9280 C   0  0  0  0  0 15  0  0  0  0  0  0
  -24.9630  -26.9630   55.4940 C   0  0  0  0  0  3  0  0  0  0  0  0
  -26.3200  -26.4390   55.8610 C   0  0  0  0  0  3  0  0  0  0  0  0
  -27.5340  -27.2960   55.6620 C   0  0  0  0  0  2  0  0  0  0  0  0
  -27.3920  -28.6780   55.0960 C   0  0  0  0  0  2  0  0  0  0  0  0
  -26.0360  -29.2020   54.7290 C   0  0  0  0  0  2  0  0  0  0  0  0
  -26.4210  -25.4530   56.2650 H   0  0  0  0  0  0  0  0  0  0  0  0
  -27.2880  -26.0650   56.1230 H   0  0  0  0  0  0  0  0  0  0  0  0
  -28.5020  -26.9220   55.9240 H   0  0  0  0  0  0  0  0  0  0  0  0
  -28.4010  -27.9080   55.5200 H   0  0  0  0  0  0  0  0  0  0  0  0
  -28.2590  -29.2900   54.9540 H   0  0  0  0  0  0  0  0  0  0  0  0
  -27.2910  -29.6640   54.6920 H   0  0  0  0  0  0  0  0  0  0  0  0
  -25.9340  -30.1880   54.3250 H   0  0  0  0  0  0  0  0  0  0  0  0
  -25.0670  -29.5760   54.4670 H   0  0  0  0  0  0  0  0  0  0  0  0
  -21.1240  -27.1660   54.9650 N   0  0  0  0  0  0  0  0  0  0  0  0
  -20.2050  -27.9590   55.8470 C   0  0  0  0  0  0  0  0  0  0  0  0
  -20.7720  -28.9450   56.8250 O   0  0  0  0  0  0  0  0  0  0  0  0
  -20.7510  -26.5180   54.3230 H   0  0  0  0  0  0  0  0  0  0  0  0
  -18.7210  -27.7670   55.7500 C   0  0  0  0  0  0  0  0  0  0  0  0
  -17.8490  -28.8890   55.2700 C   0  0  0  0  0  0  0  0  0  0  0  0
  -16.3640  -28.6960   55.1730 C   0  0  0  0  0  0  0  0  0  0  0  0
  -15.7520  -27.3820   55.5560 C   0  0  0  0  0  0  0  0  0  0  0  0
  -14.2680  -27.1900   55.4590 F   0  0  0  0  0  0  0  0  0  0  0  0
  -16.6240  -26.2600   56.0360 C   0  0  0  0  0  0  0  0  0  0  0  0
  -18.1080  -26.4520   56.1330 C   0  0  0  0  0  0  0  0  0  0  0  0
  -18.2700  -29.7930   55.0060 H   0  0  0  0  0  0  0  0  0  0  0  0
  -15.7650  -29.4690   54.8420 H   0  0  0  0  0  0  0  0  0  0  0  0
  -16.2030  -25.3550   56.3000 H   0  0  0  0  0  0  0  0  0  0  0  0
  -18.7080  -25.6800   56.4630 H   0  0  0  0  0  0  0  0  0  0  0  0
  -22.9480  -23.6060   56.5940 N   0  0  0  0  0  1  0  0  0  0  0  0
  -23.2720  -24.9800   56.0850 C   0  0  0  0  0  2  0  0  0  0  0  0
  1 34  1  0
  2  1  1  0
  3  2  2  0
  5  1  2  0
  5  6  1  0
  6 11  1  0
  6 10  1  0
  7 12  1  0
 13  7  1  0
 14  8  1  0
 15  8  1  0
 16  9  1  0
 17  9  1  0
 18  2  1  0
 18 19  1  0
 19 20  2  0
 21 18  1  0
 22 19  1  0
 22 28  1  0
 23 22  2  0
 24 23  1  0
 24 25  2  0
 25 27  1  0
 26 25  1  0
 27 28  2  0
 27 31  1  0
 28 32  1  0
 29 23  1  0
 30 24  1  0
 34 33  1  0
M  END
>  <minimizedAffinity>  (24) 
-7.14619589

$$$$

     RDKit          3D

 44 47  0  0  1  0  0  0  0  0999 V2000
  -15.4530  -32.1990   55.9810 C   0  0  0  0  0  3  0  0  0  0  0  0
  -15.5170  -31.6190   54.5990 N   0  0  0  0  0  0  0  0  0  0  0  0
  -16.8010  -30.8530   54.4770 C   0  0  0  0  0  0  0  0  0  0  0  0
  -17.4000  -30.0720   53.3450 C   0  0  0  0  0  0  0  0  0  0  0  0
  -18.7280  -29.3970   53.5200 C   0  0  0  0  0  0  0  0  0  0  0  0
  -19.4570  -29.5040   54.8260 C   0  0  0  0  0  0  0  0  0  0  0  0
  -18.8580  -30.2850   55.9580 C   0  0  0  0  0  0  0  0  0  0  0  0
  -17.5300  -30.9590   55.7840 C   0  0  0  0  0  0  0  0  0  0  0  0
  -16.6970  -31.7910   56.7130 N   0  0  0  0  0  0  0  0  0  0  0  0
  -16.8980  -29.9990   52.4460 H   0  0  0  0  0  0  0  0  0  0  0  0
  -19.1400  -28.8600   52.7410 H   0  0  0  0  0  0  0  0  0  0  0  0
  -19.3600  -30.3580   56.8570 H   0  0  0  0  0  0  0  0  0  0  0  0
  -16.9270  -32.0280   57.6410 H   0  0  0  0  0  0  0  0  0  0  0  0
  -20.7860  -28.8300   55.0000 N   0  0  0  0  0  0  0  0  0  0  0  0
  -20.8490  -27.4150   55.4960 C   0  0  0  0  0  3  0  0  0  0  0  0
  -19.5850  -26.6750   55.8170 N   0  0  0  0  0  0  0  0  0  0  0  0
  -19.6490  -25.2610   56.3130 C   0  0  0  0  0  0  0  0  0  0  0  0
  -20.9770  -24.5860   56.4870 N   0  0  0  0  0  2  0  0  0  0  0  0
  -22.2420  -25.3260   56.1660 C   0  0  0  0  0  0  0  0  0  0  0  0
  -23.5700  -24.6520   56.3400 C   0  0  0  0  0  0  0  0  0  0  0  0
  -24.8350  -25.3920   56.0190 C   0  0  0  0  0  0  0  0  0  0  0  0
  -24.7710  -26.8060   55.5240 C   0  0  0  0  0  0  0  0  0  0  0  0
  -23.4420  -27.4810   55.3490 C   0  0  0  0  0  0  0  0  0  0  0  0
  -22.1780  -26.7410   55.6700 C   0  0  0  0  0  0  0  0  0  0  0  0
  -21.6160  -29.3150   54.7900 H   0  0  0  0  0  0  0  0  0  0  0  0
  -18.7780  -24.7520   56.5340 H   0  0  0  0  0  0  0  0  0  0  0  0
  -23.6140  -23.6790   56.6810 H   0  0  0  0  0  0  0  0  0  0  0  0
  -25.7490  -24.9280   56.1390 H   0  0  0  0  0  0  0  0  0  0  0  0
  -25.6410  -27.3150   55.3030 H   0  0  0  0  0  0  0  0  0  0  0  0
  -23.3990  -28.4540   55.0080 H   0  0  0  0  0  0  0  0  0  0  0  0
  -14.3400  -33.0400   56.5340 C   0  0  0  0  0  3  0  0  0  0  0  0
  -14.2840  -34.0800   56.2910 H   0  0  0  0  0  0  0  0  0  0  0  0
  -15.0780  -33.4810   55.8960 H   0  0  0  0  0  0  0  0  0  0  0  0
  -11.2370  -31.1840   59.2130 C   0  0  0  0  0  0  0  0  0  0  0  0
  -10.9300  -31.4250   57.7650 C   0  0  0  0  0  0  0  0  0  0  0  0
  -11.9640  -32.0430   56.8720 C   0  0  0  0  0  0  0  0  0  0  0  0
  -13.3060  -32.4210   57.4270 C   0  0  0  0  0  0  0  0  0  0  0  0
  -13.6130  -32.1810   58.8750 C   0  0  0  0  0  0  0  0  0  0  0  0
  -12.5780  -31.5620   59.7680 C   0  0  0  0  0  0  0  0  0  0  0  0
  -10.5250  -30.7590   59.8280 H   0  0  0  0  0  0  0  0  0  0  0  0
  -10.0070  -31.1640   57.3830 H   0  0  0  0  0  0  0  0  0  0  0  0
  -11.7530  -32.2090   55.8750 H   0  0  0  0  0  0  0  0  0  0  0  0
  -14.5350  -32.4410   59.2570 H   0  0  0  0  0  0  0  0  0  0  0  0
  -12.7890  -31.3970   60.7650 H   0  0  0  0  0  0  0  0  0  0  0  0
  1  9  1  0
  2  1  2  0
  3  2  1  0
  3  8  1  0
  4  5  1  0
  4  3  2  0
  5  6  2  0
  6 14  1  0
  6  7  1  0
  7 12  1  0
  8  7  2  0
  8  9  1  0
  9 13  1  0
 10  4  1  0
 11  5  1  0
 15 14  1  0
 15 24  1  0
 15 16  1  0
 16 17  2  0
 17 18  1  0
 17 26  1  0
 19 20  1  0
 19 18  1  0
 20 27  1  0
 21 28  1  0
 21 20  2  0
 22 21  1  0
 23 22  2  0
 23 24  1  0
 24 19  2  0
 25 14  1  0
 29 22  1  0
 30 23  1  0
 31 37  1  0
 32 31  1  0
 33 31  1  0
 34 39  1  0
 34 40  1  0
 35 34  2  0
 36 37  2  0
 36 35  1  0
 37 38  1  0
 38 43  1  0
 38 39  2  0
 39 44  1  0
 41 35  1  0
 42 36  1  0
M  END
>  <minimizedAffinity>  (25) 
-9.77954483

$$$$

     RDKit          3D

 44 44  0  0  0  0  0  0  0  0999 V2000
  -21.1750  -25.6260   56.2790 C   0  0  0  0  0  3  0  0  0  0  0  0
  -22.0360  -24.4340   56.5750 C   0  0  0  0  0  0  0  0  0  0  0  0
  -23.5200  -24.5140   56.3790 C   0  0  0  0  0  0  0  0  0  0  0  0
  -24.1440  -25.7860   55.8870 C   0  0  0  0  0  0  0  0  0  0  0  0
  -23.2830  -26.9780   55.5910 C   0  0  0  0  0  0  0  0  0  0  0  0
  -21.7980  -26.8980   55.7870 C   0  0  0  0  0  0  0  0  0  0  0  0
  -21.6060  -23.5590   56.9140 H   0  0  0  0  0  0  0  0  0  0  0  0
  -24.1130  -23.6940   56.5830 H   0  0  0  0  0  0  0  0  0  0  0  0
  -25.1660  -25.8410   55.7520 H   0  0  0  0  0  0  0  0  0  0  0  0
  -20.9370  -28.0900   55.4910 C   0  0  0  0  0  0  0  0  0  0  0  0
  -20.3430  -28.2660   54.1250 C   0  0  0  0  0  0  0  0  0  0  0  0
  -20.7540  -28.7900   56.2270 H   0  0  0  0  0  0  0  0  0  0  0  0
  -20.5270  -27.5660   53.3890 H   0  0  0  0  0  0  0  0  0  0  0  0
  -19.4820  -29.4580   53.8290 C   0  0  0  0  0  0  0  0  0  0  0  0
  -19.1690  -29.8220   52.4080 C   0  0  0  0  0  0  0  0  0  0  0  0
  -18.3080  -31.0140   52.1120 N   0  0  0  0  0  0  0  0  0  0  0  0
  -17.7600  -31.8420   53.2370 C   0  0  0  0  0  0  0  0  0  0  0  0
  -18.0740  -31.4770   54.6580 C   0  0  0  0  0  0  0  0  0  0  0  0
  -18.9350  -30.2850   54.9540 C   0  0  0  0  0  0  0  0  0  0  0  0
  -19.5450  -29.2530   51.6340 H   0  0  0  0  0  0  0  0  0  0  0  0
  -17.1680  -32.6620   53.0340 H   0  0  0  0  0  0  0  0  0  0  0  0
  -19.1500  -30.0340   55.9320 H   0  0  0  0  0  0  0  0  0  0  0  0
  -17.5260  -32.3050   55.7830 C   0  0  0  0  0  0  0  0  0  0  0  0
  -17.6630  -33.7980   55.7510 O   0  0  0  0  0  0  0  0  0  0  0  0
  -16.8410  -31.6390   56.9400 N   0  0  0  0  0  0  0  0  0  0  0  0
  -16.7520  -30.6590   56.9600 H   0  0  0  0  0  0  0  0  0  0  0  0
  -16.2940  -32.4660   58.0640 C   0  0  0  0  0  0  0  0  0  0  0  0
  -15.8050  -31.9910   58.8900 H   0  0  0  0  0  0  0  0  0  0  0  0
  -16.3920  -33.5320   58.0420 H   0  0  0  0  0  0  0  0  0  0  0  0
  -15.9030  -33.0570   58.8670 H   0  0  0  0  0  0  0  0  0  0  0  0
  -19.6900  -25.5460   56.4760 C   0  0  0  0  0  3  0  0  0  0  0  0
  -19.2650  -25.7560   57.4360 H   0  0  0  0  0  0  0  0  0  0  0  0
  -20.3240  -25.8130   57.2960 H   0  0  0  0  0  0  0  0  0  0  0  0
  -18.8000  -25.1730   55.3270 C   0  0  0  0  0  0  0  0  0  0  0  0
  -19.2250  -24.9630   54.3670 H   0  0  0  0  0  0  0  0  0  0  0  0
  -17.7410  -25.1160   55.4670 H   0  0  0  0  0  0  0  0  0  0  0  0
  -18.1660  -24.9060   54.5070 H   0  0  0  0  0  0  0  0  0  0  0  0
  -23.9070  -28.2500   55.0980 C   0  0  0  0  0  0  0  0  0  0  0  0
  -24.2390  -28.9890   55.7980 H   0  0  0  0  0  0  0  0  0  0  0  0
  -24.3530  -29.1580   54.7470 H   0  0  0  0  0  0  0  0  0  0  0  0
  -24.0660  -28.4870   53.6260 C   0  0  0  0  0  0  0  0  0  0  0  0
  -23.7350  -27.7480   52.9260 H   0  0  0  0  0  0  0  0  0  0  0  0
  -24.5120  -29.3940   53.2740 H   0  0  0  0  0  0  0  0  0  0  0  0
  -24.1800  -28.6550   52.5750 H   0  0  0  0  0  0  0  0  0  0  0  0
  1  2  1  0
  2  7  1  0
  3  2  2  0
  3  8  1  0
  4  3  1  0
  5  6  1  0
  5  4  2  0
  6  1  2  0
  9  4  1  0
 10  6  1  0
 10 12  1  0
 11 10  2  0
 13 11  1  0
 14 11  1  0
 14 19  1  0
 15 14  2  0
 16 15  1  0
 16 17  2  0
 17 18  1  0
 18 19  2  0
 18 23  1  0
 19 22  1  0
 20 15  1  0
 21 17  1  0
 23 25  1  0
 24 23  2  0
 25 26  1  0
 25 27  1  0
 27 30  1  0
 27 28  1  0
 29 27  1  0
 31 33  1  0
 31 32  1  0
 34 36  1  0
 34 31  1  0
 35 34  1  0
 37 34  1  0
 38  5  1  0
 38 39  1  0
 40 38  1  0
 41 38  1  0
 42 41  1  0
 43 41  1  0
 44 41  1  0
M  END
>  <minimizedAffinity>  (26) 
-8.58659363

$$$$

     RDKit          3D

 27 27  0  0  0  0  0  0  0  0999 V2000
  -20.2090  -27.4640   54.8580 N   0  0  0  0  0  2  0  0  0  0  0  0
  -20.5900  -26.3220   55.7520 C   0  0  0  0  0  0  0  0  0  0  0  0
  -19.3430  -25.8110   56.4110 N   0  0  0  0  0  2  0  0  0  0  0  0
  -18.1900  -26.6390   55.9240 C   0  0  0  0  0  0  0  0  0  0  0  0
  -16.7220  -26.5950   56.2300 C   0  0  0  0  0  0  0  0  0  0  0  0
  -15.7900  -27.5720   55.5770 C   0  0  0  0  0  0  0  0  0  0  0  0
  -16.3250  -28.5930   54.6170 N   0  0  0  0  0  0  0  0  0  0  0  0
  -17.7930  -28.6370   54.3110 C   0  0  0  0  0  0  0  0  0  0  0  0
  -18.7250  -27.6600   54.9640 C   0  0  0  0  0  3  0  0  0  0  0  0
  -16.3540  -25.8930   56.8900 H   0  0  0  0  0  0  0  0  0  0  0  0
  -14.7800  -27.5410   55.7880 H   0  0  0  0  0  0  0  0  0  0  0  0
  -18.1610  -29.3400   53.6510 H   0  0  0  0  0  0  0  0  0  0  0  0
  -21.9750  -25.7830   55.9520 C   0  0  0  0  0  0  0  0  0  0  0  0
  -23.2470  -26.5770   55.8910 N   0  0  0  0  0  0  0  0  0  0  0  0
  -24.3910  -25.6410   56.1500 O   0  0  0  0  0  0  0  0  0  0  0  0
  -23.8260  -24.2690   56.3710 N   0  0  0  0  0  0  0  0  0  0  0  0
  -22.3330  -24.3570   56.2490 C   0  0  0  0  0  0  0  0  0  0  0  0
  -21.3680  -23.2180   56.3970 N   0  0  0  0  0  0  0  0  0  0  0  0
  -20.4020  -23.3770   56.2990 H   0  0  0  0  0  0  0  0  0  0  0  0
  -21.7010  -22.3130   56.5930 H   0  0  0  0  0  0  0  0  0  0  0  0
  -21.1460  -28.2690   54.0070 C   0  0  0  0  0  3  0  0  0  0  0  0
  -21.4380  -27.9070   53.0430 H   0  0  0  0  0  0  0  0  0  0  0  0
  -20.7690  -27.3330   53.6500 H   0  0  0  0  0  0  0  0  0  0  0  0
  -21.6750  -29.5800   54.5070 C   0  0  0  0  0  0  0  0  0  0  0  0
  -21.3830  -29.9420   55.4710 H   0  0  0  0  0  0  0  0  0  0  0  0
  -22.3430  -30.1540   53.9010 H   0  0  0  0  0  0  0  0  0  0  0  0
  -22.0520  -30.5160   54.8640 H   0  0  0  0  0  0  0  0  0  0  0  0
  1  2  2  0
  2 13  1  0
  2  3  1  0
  4  5  1  0
  4  3  1  0
  5 10  1  0
  6 11  1  0
  6  5  2  0
  7  6  1  0
  8  7  2  0
  8  9  1  0
  9  4  2  0
 12  8  1  0
 13 17  1  0
 14 13  2  0
 14 15  1  0
 15 16  1  0
 17 16  2  0
 17 18  1  0
 18 20  1  0
 19 18  1  0
 21 24  1  0
 22 21  1  0
 23 21  1  0
 24 27  1  0
 24 25  1  0
 26 24  1  0
M  END
>  <minimizedAffinity>  (27) 
-7.12799835

$$$$

     RDKit          3D

 32 34  0  0  0  0  0  0  0  0999 V2000
  -19.9350  -31.5050   54.3130 O   0  0  0  0  0  0  0  0  0  0  0  0
  -20.9900  -30.4410   54.2340 C   0  0  0  0  0  0  0  0  0  0  0  0
  -22.1330  -30.4030   53.2630 N   0  0  0  0  0  0  0  0  0  0  0  0
  -22.9360  -29.1680   53.5420 C   0  0  0  0  0  0  0  0  0  0  0  0
  -24.1690  -28.7330   52.8070 O   0  0  0  0  0  0  0  0  0  0  0  0
  -22.2900  -28.4420   54.6850 C   0  0  0  0  0  0  0  0  0  0  0  0
  -21.0870  -29.2290   55.1130 C   0  0  0  0  0  0  0  0  0  0  0  0
  -22.3210  -31.0720   52.5660 H   0  0  0  0  0  0  0  0  0  0  0  0
  -22.7640  -27.1550   55.2930 C   0  0  0  0  0  0  0  0  0  0  0  0
  -21.7770  -26.0770   55.6300 C   0  0  0  0  0  0  0  0  0  0  0  0
  -22.2510  -24.7900   56.2380 C   0  0  0  0  0  0  0  0  0  0  0  0
  -23.7110  -24.5820   56.5100 C   0  0  0  0  0  0  0  0  0  0  0  0
  -24.6980  -25.6610   56.1730 C   0  0  0  0  0  0  0  0  0  0  0  0
  -24.2240  -26.9470   55.5650 C   0  0  0  0  0  0  0  0  0  0  0  0
  -20.7720  -26.2200   55.4430 H   0  0  0  0  0  0  0  0  0  0  0  0
  -21.5720  -24.0480   56.4700 H   0  0  0  0  0  0  0  0  0  0  0  0
  -24.0370  -23.6970   56.9290 H   0  0  0  0  0  0  0  0  0  0  0  0
  -25.7020  -25.5170   56.3600 H   0  0  0  0  0  0  0  0  0  0  0  0
  -24.9030  -27.6890   55.3330 H   0  0  0  0  0  0  0  0  0  0  0  0
  -20.1470  -28.8680   56.2240 N   0  0  0  0  0  0  0  0  0  0  0  0
  -20.4270  -28.9760   57.1610 H   0  0  0  0  0  0  0  0  0  0  0  0
  -18.7770  -28.3420   55.9070 C   0  0  0  0  0  0  0  0  0  0  0  0
  -17.6790  -29.2910   55.5280 C   0  0  0  0  0  0  0  0  0  0  0  0
  -16.3100  -28.7660   55.2110 C   0  0  0  0  0  0  0  0  0  0  0  0
  -16.0400  -27.2910   55.2750 C   0  0  0  0  0  0  0  0  0  0  0  0
  -17.1380  -26.3430   55.6540 C   0  0  0  0  0  0  0  0  0  0  0  0
  -18.5070  -26.8680   55.9700 C   0  0  0  0  0  0  0  0  0  0  0  0
  -17.8650  -30.3050   55.4840 H   0  0  0  0  0  0  0  0  0  0  0  0
  -15.5550  -29.4180   54.9500 H   0  0  0  0  0  0  0  0  0  0  0  0
  -15.0990  -26.9300   55.0570 H   0  0  0  0  0  0  0  0  0  0  0  0
  -16.9520  -25.3280   55.6980 H   0  0  0  0  0  0  0  0  0  0  0  0
  -19.2630  -26.2160   56.2320 H   0  0  0  0  0  0  0  0  0  0  0  0
  2  1  2  0
  2  7  1  0
  3  4  1  0
  3  2  1  0
  4  6  1  0
  5  4  2  0
  6  7  2  0
  6  9  1  0
  7 20  1  0
  8  3  1  0
  9 14  2  0
  9 10  1  0
 10 11  2  0
 11 16  1  0
 11 12  1  0
 12 17  1  0
 13 18  1  0
 13 12  2  0
 14 13  1  0
 15 10  1  0
 19 14  1  0
 20 21  1  0
 22 27  1  0
 22 20  1  0
 23 22  2  0
 24 25  2  0
 24 23  1  0
 25 26  1  0
 26 31  1  0
 26 27  2  0
 27 32  1  0
 28 23  1  0
 29 24  1  0
 30 25  1  0
M  END
>  <minimizedAffinity>  (28) 
-7.90677357

$$$$

     RDKit          3D

 35 36  0  0  0  0  0  0  0  0999 V2000
  -19.0900  -26.4800   55.6730 C   0  0  0  0  0  0  0  0  0  0  0  0
  -20.3770  -27.1380   56.0720 C   0  0  0  0  0  0  0  0  0  0  0  0
  -19.0800  -25.4820   55.4090 H   0  0  0  0  0  0  0  0  0  0  0  0
  -20.3870  -28.1350   56.3360 H   0  0  0  0  0  0  0  0  0  0  0  0
  -21.6510  -26.3460   56.0870 C   0  0  0  0  0  0  0  0  0  0  0  0
  -21.6490  -24.9320   56.5900 C   0  0  0  0  0  0  0  0  0  0  0  0
  -22.9230  -24.1400   56.6050 C   0  0  0  0  0  0  0  0  0  0  0  0
  -24.1980  -24.7610   56.1180 C   0  0  0  0  0  0  0  0  0  0  0  0
  -24.2000  -26.1750   55.6160 C   0  0  0  0  0  0  0  0  0  0  0  0
  -22.9260  -26.9670   55.6000 C   0  0  0  0  0  0  0  0  0  0  0  0
  -20.7710  -24.5050   56.9250 H   0  0  0  0  0  0  0  0  0  0  0  0
  -22.9210  -23.1670   56.9500 H   0  0  0  0  0  0  0  0  0  0  0  0
  -25.0740  -24.2160   56.1280 H   0  0  0  0  0  0  0  0  0  0  0  0
  -25.0780  -26.6020   55.2810 H   0  0  0  0  0  0  0  0  0  0  0  0
  -22.9280  -28.3800   55.0980 C   0  0  0  0  0  0  0  0  0  0  0  0
  -23.8380  -28.8230   54.7510 H   0  0  0  0  0  0  0  0  0  0  0  0
  -22.0200  -28.9460   55.0870 H   0  0  0  0  0  0  0  0  0  0  0  0
  -22.9290  -29.3890   54.7400 H   0  0  0  0  0  0  0  0  0  0  0  0
  -16.5770  -29.5340   55.3440 C   0  0  0  0  0  0  0  0  0  0  0  0
  -15.2690  -28.8560   55.6270 C   0  0  0  0  0  0  0  0  0  0  0  0
  -15.2340  -27.3870   55.9260 N   0  0  0  0  0  0  0  0  0  0  0  0
  -16.5080  -26.5950   55.9410 C   0  0  0  0  0  0  0  0  0  0  0  0
  -17.8160  -27.2720   55.6580 C   0  0  0  0  0  0  0  0  0  0  0  0
  -17.8500  -28.7420   55.3590 C   0  0  0  0  0  0  0  0  0  0  0  0
  -14.3920  -29.4010   55.6170 H   0  0  0  0  0  0  0  0  0  0  0  0
  -16.4840  -25.5840   56.1470 H   0  0  0  0  0  0  0  0  0  0  0  0
  -18.7500  -29.2080   55.1640 H   0  0  0  0  0  0  0  0  0  0  0  0
  -17.1240  -31.9660   56.0740 N   0  0  0  0  0  0  0  0  0  0  0  0
  -16.6110  -31.0030   55.0450 C   0  0  0  0  0  0  0  0  0  0  0  0
  -16.1320  -31.5100   53.7170 O   0  0  0  0  0  0  0  0  0  0  0  0
  -17.4390  -31.6340   56.9460 H   0  0  0  0  0  0  0  0  0  0  0  0
  -17.1590  -33.4360   55.7750 C   0  0  0  0  0  0  0  0  0  0  0  0
  -17.5250  -34.1230   56.5090 H   0  0  0  0  0  0  0  0  0  0  0  0
  -16.8170  -33.7970   54.8270 H   0  0  0  0  0  0  0  0  0  0  0  0
  -17.1830  -34.4840   55.5620 H   0  0  0  0  0  0  0  0  0  0  0  0
  1  2  2  0
  2  5  1  0
  2  4  1  0
  3  1  1  0
  5  6  1  0
  6  7  2  0
  6 11  1  0
  7 12  1  0
  8 13  1  0
  8  7  1  0
  9  8  2  0
 10  9  1  0
 10  5  2  0
 14  9  1  0
 15 10  1  0
 16 15  1  0
 17 15  1  0
 18 15  1  0
 19 24  2  0
 19 20  1  0
 20 21  2  0
 21 22  1  0
 22 26  1  0
 23  1  1  0
 23 22  2  0
 24 23  1  0
 25 20  1  0
 27 24  1  0
 28 31  1  0
 29 19  1  0
 29 28  1  0
 30 29  2  0
 32 28  1  0
 32 33  1  0
 34 32  1  0
 35 32  1  0
M  END
>  <minimizedAffinity>  (29) 
-7.92847776

$$$$

     RDKit          3D

 39 42  0  0  0  0  0  0  0  0999 V2000
  -18.6940  -29.6730   55.5820 C   0  0  0  0  0  0  0  0  0  0  0  0
  -19.2900  -28.4120   56.1350 N   0  0  0  0  0  0  0  0  0  0  0  0
  -20.6000  -28.1760   55.4430 C   0  0  0  0  0  0  0  0  0  0  0  0
  -20.8140  -29.2910   54.4620 N   0  0  0  0  0  0  0  0  0  0  0  0
  -19.6350  -30.2160   54.5480 C   0  0  0  0  0  0  0  0  0  0  0  0
  -21.5900  -29.3980   53.8670 H   0  0  0  0  0  0  0  0  0  0  0  0
  -21.5330  -27.0280   55.6890 C   0  0  0  0  0  0  0  0  0  0  0  0
  -22.9910  -27.1620   55.3610 C   0  0  0  0  0  0  0  0  0  0  0  0
  -23.9230  -26.0140   55.6060 C   0  0  0  0  0  0  0  0  0  0  0  0
  -23.3980  -24.7300   56.1800 C   0  0  0  0  0  0  0  0  0  0  0  0
  -21.9410  -24.5960   56.5070 C   0  0  0  0  0  0  0  0  0  0  0  0
  -21.0080  -25.7450   56.2620 C   0  0  0  0  0  0  0  0  0  0  0  0
  -23.3520  -28.0450   54.9660 H   0  0  0  0  0  0  0  0  0  0  0  0
  -24.9260  -26.1060   55.3810 H   0  0  0  0  0  0  0  0  0  0  0  0
  -24.0400  -23.9410   56.3490 H   0  0  0  0  0  0  0  0  0  0  0  0
  -21.5800  -23.7140   56.9020 H   0  0  0  0  0  0  0  0  0  0  0  0
  -20.0050  -25.6520   56.4880 H   0  0  0  0  0  0  0  0  0  0  0  0
  -16.0600  -32.1420   57.2280 C   0  0  0  0  0  0  0  0  0  0  0  0
  -14.7700  -31.5020   56.8080 C   0  0  0  0  0  0  0  0  0  0  0  0
  -14.7880  -30.2530   55.9780 C   0  0  0  0  0  0  0  0  0  0  0  0
  -16.0960  -29.6430   55.5700 C   0  0  0  0  0  0  0  0  0  0  0  0
  -17.3860  -30.2820   55.9900 C   0  0  0  0  0  0  0  0  0  0  0  0
  -17.3680  -31.5320   56.8200 C   0  0  0  0  0  0  0  0  0  0  0  0
  -13.8700  -31.9220   57.0890 H   0  0  0  0  0  0  0  0  0  0  0  0
  -13.9000  -29.8120   55.6890 H   0  0  0  0  0  0  0  0  0  0  0  0
  -16.1090  -28.7830   54.9990 H   0  0  0  0  0  0  0  0  0  0  0  0
  -18.2550  -31.9720   57.1090 H   0  0  0  0  0  0  0  0  0  0  0  0
  -16.0410  -33.3920   58.0580 O   0  0  0  0  0  0  0  0  0  0  0  0
  -15.2250  -33.7730   58.3140 H   0  0  0  0  0  0  0  0  0  0  0  0
  -19.4340  -31.4650   53.7420 C   0  0  0  0  0  0  0  0  0  0  0  0
  -20.3720  -32.6230   53.9070 C   0  0  0  0  0  0  0  0  0  0  0  0
  -20.1720  -33.8720   53.1010 C   0  0  0  0  0  0  0  0  0  0  0  0
  -19.0320  -33.9630   52.1290 N   0  0  0  0  0  0  0  0  0  0  0  0
  -18.0930  -32.8040   51.9640 C   0  0  0  0  0  0  0  0  0  0  0  0
  -18.2940  -31.5550   52.7700 C   0  0  0  0  0  0  0  0  0  0  0  0
  -21.1560  -32.5610   54.5750 H   0  0  0  0  0  0  0  0  0  0  0  0
  -20.8170  -34.6700   53.2150 H   0  0  0  0  0  0  0  0  0  0  0  0
  -17.3100  -32.8660   51.2960 H   0  0  0  0  0  0  0  0  0  0  0  0
  -17.6490  -30.7580   52.6570 H   0  0  0  0  0  0  0  0  0  0  0  0
  1 22  1  0
  1  2  1  0
  3  7  1  0
  3  2  2  0
  4  5  1  0
  4  3  1  0
  5  1  2  0
  6  4  1  0
  7 12  1  0
  8  9  1  0
  8  7  2  0
  9 10  2  0
 10 15  1  0
 10 11  1  0
 11 16  1  0
 12 17  1  0
 12 11  2  0
 13  8  1  0
 14  9  1  0
 18 28  1  0
 19 24  1  0
 19 18  2  0
 20 19  1  0
 21 20  2  0
 21 22  1  0
 22 23  2  0
 23 27  1  0
 23 18  1  0
 25 20  1  0
 26 21  1  0
 28 29  1  0
 30 31  1  0
 30  5  1  0
 31 36  1  0
 32 37  1  0
 32 31  2  0
 33 32  1  0
 34 33  2  0
 34 35  1  0
 35 30  2  0
 38 34  1  0
 39 35  1  0
M  END
>  <minimizedAffinity>  (30) 
-7.77868843

$$$$

     RDKit          3D

 72 74  0  0  0  0  0  0  0  0999 V2000
  -22.8750  -30.1870   53.8300 C   0  0  0  0  0  0  0  0  0  0  0  0
  -23.6620  -31.0640   52.9020 C   0  0  0  0  0  0  0  0  0  0  0  0
  -23.0740  -32.3530   52.4080 C   0  0  0  0  0  0  0  0  0  0  0  0
  -21.6980  -32.7640   52.8420 C   0  0  0  0  0  0  0  0  0  0  0  0
  -21.1090  -34.0520   52.3480 N   0  0  0  0  0  0  0  0  0  0  0  0
  -19.7340  -34.4630   52.7820 C   0  0  0  0  0  0  0  0  0  0  0  0
  -18.9460  -33.5860   53.7090 N   0  0  0  0  0  0  0  0  0  0  0  0
  -19.5350  -32.2980   54.2030 C   0  0  0  0  0  0  0  0  0  0  0  0
  -18.7470  -31.4210   55.1310 N   0  0  0  0  0  0  0  0  0  0  0  0
  -20.9100  -31.8870   53.7690 C   0  0  0  0  0  0  0  0  0  0  0  0
  -21.4990  -30.5980   54.2630 C   0  0  0  0  0  0  0  0  0  0  0  0
  -24.6090  -30.7810   52.6040 H   0  0  0  0  0  0  0  0  0  0  0  0
  -23.6150  -32.9560   51.7700 H   0  0  0  0  0  0  0  0  0  0  0  0
  -19.3290  -35.3500   52.4420 H   0  0  0  0  0  0  0  0  0  0  0  0
  -19.1330  -30.5750   55.4550 H   0  0  0  0  0  0  0  0  0  0  0  0
  -20.9570  -29.9950   54.9020 H   0  0  0  0  0  0  0  0  0  0  0  0
  -17.3710  -31.8320   55.5650 C   0  0  0  0  0  0  0  0  0  0  0  0
  -17.0340  -31.9000   57.0250 C   0  0  0  0  0  0  0  0  0  0  0  0
  -15.6590  -32.3110   57.4580 C   0  0  0  0  0  0  0  0  0  0  0  0
  -14.6200  -32.6540   56.4320 C   0  0  0  0  0  0  0  0  0  0  0  0
  -14.9570  -32.5870   54.9720 C   0  0  0  0  0  0  0  0  0  0  0  0
  -13.9180  -32.9300   53.9460 Cl  0  0  0  0  0  0  0  0  0  0  0  0
  -16.3330  -32.1750   54.5380 C   0  0  0  0  0  0  0  0  0  0  0  0
  -17.7490  -31.6630   57.7310 H   0  0  0  0  0  0  0  0  0  0  0  0
  -15.4270  -32.3570   58.4630 H   0  0  0  0  0  0  0  0  0  0  0  0
  -16.5650  -32.1290   53.5340 H   0  0  0  0  0  0  0  0  0  0  0  0
  -13.2440  -33.0660   56.8660 O   0  0  0  0  0  0  0  0  0  0  0  0
  -12.8880  -33.0740   58.3230 C   0  0  0  0  0  0  0  0  0  0  0  0
  -13.3250  -33.8000   58.9770 H   0  0  0  0  0  0  0  0  0  0  0  0
  -12.6340  -33.0800   59.3630 H   0  0  0  0  0  0  0  0  0  0  0  0
  -11.9210  -32.0630   58.8640 C   0  0  0  0  0  0  0  0  0  0  0  0
  -10.5660  -31.9110   58.2380 C   0  0  0  0  0  0  0  0  0  0  0  0
   -9.5990  -30.9010   58.7790 C   0  0  0  0  0  0  0  0  0  0  0  0
   -9.9850  -30.0430   59.9470 C   0  0  0  0  0  0  0  0  0  0  0  0
  -11.3390  -30.1950   60.5730 C   0  0  0  0  0  0  0  0  0  0  0  0
  -11.7260  -29.3370   61.7410 F   0  0  0  0  0  0  0  0  0  0  0  0
  -12.3070  -31.2050   60.0320 C   0  0  0  0  0  0  0  0  0  0  0  0
  -10.3000  -32.5020   57.4340 H   0  0  0  0  0  0  0  0  0  0  0  0
   -8.6670  -30.7970   58.3480 H   0  0  0  0  0  0  0  0  0  0  0  0
   -9.3190  -29.3480   60.3190 H   0  0  0  0  0  0  0  0  0  0  0  0
  -13.2390  -31.3100   60.4630 H   0  0  0  0  0  0  0  0  0  0  0  0
  -23.8800  -26.5320   54.6630 C   0  0  0  0  0  3  0  0  0  0  0  0
  -24.8560  -27.3000   55.5040 C   0  0  0  0  0  0  0  0  0  0  0  0
  -24.5980  -28.7630   55.2940 C   0  0  0  0  0  0  0  0  0  0  0  0
  -23.4630  -28.8990   54.3240 C   0  0  0  0  0  0  0  0  0  0  0  0
  -23.0190  -27.5200   53.9340 O   0  0  0  0  0  0  0  0  0  0  0  0
  -25.5780  -26.8940   56.1190 H   0  0  0  0  0  0  0  0  0  0  0  0
  -25.1120  -29.5400   55.7400 H   0  0  0  0  0  0  0  0  0  0  0  0
  -23.7830  -25.0380   54.5690 C   0  0  0  0  0  3  0  0  0  0  0  0
  -23.9480  -24.5500   53.6310 H   0  0  0  0  0  0  0  0  0  0  0  0
  -24.0170  -25.6160   53.6990 H   0  0  0  0  0  0  0  0  0  0  0  0
  -23.4540  -24.2290   55.7880 O   0  0  0  0  0  1  0  0  0  0  0  0
  -22.0230  -23.9440   56.1360 C   0  0  0  0  0  2  0  0  0  0  0  0
  -21.5710  -23.0240   55.8270 H   0  0  0  0  0  0  0  0  0  0  0  0
  -22.5920  -23.2280   55.5800 H   0  0  0  0  0  0  0  0  0  0  0  0
  -21.2260  -24.9470   56.9150 C   0  0  0  0  0  3  0  0  0  0  0  0
  -21.3870  -25.0580   57.9680 H   0  0  0  0  0  0  0  0  0  0  0  0
  -21.9560  -24.3420   57.4120 H   0  0  0  0  0  0  0  0  0  0  0  0
  -19.4030  -24.5680   55.8990 O   0  0  0  0  0  0  0  0  0  0  0  0
  -20.2030  -25.7950   56.2210 S   0  0  1  0  0  0  0  0  0  0  0  0
  -21.0020  -27.0230   56.5420 O   0  0  0  0  0  0  0  0  0  0  0  0
  -19.1790  -26.6430   55.5260 C   0  0  0  0  0  0  0  0  0  0  0  0
  -19.5740  -27.4750   54.3410 C   0  0  0  0  0  0  0  0  0  0  0  0
  -18.5490  -28.3240   53.6460 C   0  0  0  0  0  0  0  0  0  0  0  0
  -17.1320  -28.3400   54.1360 C   0  0  0  0  0  0  0  0  0  0  0  0
  -16.7380  -27.5090   55.3210 C   0  0  0  0  0  0  0  0  0  0  0  0
  -17.7610  -26.6600   56.0160 C   0  0  0  0  0  0  0  0  0  0  0  0
  -20.5490  -27.4630   54.0040 H   0  0  0  0  0  0  0  0  0  0  0  0
  -18.8210  -28.8950   52.8310 H   0  0  0  0  0  0  0  0  0  0  0  0
  -16.4280  -28.9240   53.6580 H   0  0  0  0  0  0  0  0  0  0  0  0
  -15.7630  -27.5210   55.6570 H   0  0  0  0  0  0  0  0  0  0  0  0
  -17.4900  -26.0890   56.8300 H   0  0  0  0  0  0  0  0  0  0  0  0
  1 11  1  0
  1 45  1  0
  2  1  2  0
  3  4  2  0
  3  2  1  0
  4 10  1  0
  5  6  2  0
  5  4  1  0
  6  7  1  0
  7  8  2  0
  8  9  1  0
  9 15  1  0
  9 17  1  0
 10  8  1  0
 10 11  2  0
 11 16  1  0
 12  2  1  0
 13  3  1  0
 14  6  1  0
 17 18  1  0
 18 19  2  0
 18 24  1  0
 19 25  1  0
 20 27  1  0
 20 19  1  0
 21 20  2  0
 22 21  1  0
 23 21  1  0
 23 17  2  0
 26 23  1  0
 27 28  1  0
 28 31  1  0
 28 29  1  0
 28 30  1  0
 31 37  1  0
 32 33  1  0
 32 31  2  0
 33 34  2  0
 34 40  1  0
 34 35  1  0
 35 36  1  0
 37 41  1  0
 37 35  2  0
 38 32  1  0
 39 33  1  0
 42 43  2  0
 43 47  1  0
 44 43  1  0
 44 48  1  0
 45 44  2  0
 46 45  1  0
 46 42  1  0
 49 52  1  0
 50 49  1  0
 51 49  1  0
 54 53  1  0
 55 53  1  0
 56 58  1  0
 56 57  1  0
 59 60  2  0
 60 61  2  0
 60 56  1  0
 62 67  1  0
 62 60  1  0
 63 62  2  0
 64 65  2  0
 64 63  1  0
 65 66  1  0
 66 71  1  0
 66 67  2  0
 67 72  1  0
 68 63  1  0
 69 64  1  0
 70 65  1  0
M  END
>  <minimizedAffinity>  (31) 
-12.3199844

$$$$

     RDKit          3D

 55 49  0  0  0  0  0  0  0  0999 V2000
  -19.0380  -31.3640   54.3480 N   0  0  0  0  0 15  0  0  0  0  0  0
  -20.5340  -31.2780   54.2730 C   0  0  0  0  0  2  0  0  0  0  0  0
  -20.9420  -29.8940   54.6810 N   0  0  0  0  0  2  0  0  0  0  0  0
  -19.6970  -29.1230   55.0090 C   0  0  0  0  0  0  0  0  0  0  0  0
  -19.4820  -27.7110   55.4680 C   0  0  0  0  0  0  0  0  0  0  0  0
  -18.0920  -27.2080   55.7220 N   0  0  0  0  0  0  0  0  0  0  0  0
  -16.9160  -28.1160   55.5160 C   0  0  0  0  0  0  0  0  0  0  0  0
  -17.1310  -29.5280   55.0570 C   0  0  0  0  0  0  0  0  0  0  0  0
  -18.5210  -30.0310   54.8030 C   0  0  0  0  0  3  0  0  0  0  0  0
  -15.9600  -27.7700   55.6910 H   0  0  0  0  0  0  0  0  0  0  0  0
  -21.4600  -32.3840   53.8610 C   0  0  0  0  0  0  0  0  0  0  0  0
  -21.3300  -33.8300   54.2390 N   0  0  0  0  0  0  0  0  0  0  0  0
  -22.4690  -34.5780   53.6100 O   0  0  0  0  0  0  0  0  0  0  0  0
  -23.3040  -33.5940   52.8450 N   0  0  0  0  0  0  0  0  0  0  0  0
  -22.6800  -32.2380   53.0000 C   0  0  0  0  0  0  0  0  0  0  0  0
  -23.1870  -30.9610   52.3990 N   0  0  0  0  0  0  0  0  0  0  0  0
  -22.7070  -30.1170   52.5590 H   0  0  0  0  0  0  0  0  0  0  0  0
  -24.0010  -30.9660   51.8450 H   0  0  0  0  0  0  0  0  0  0  0  0
  -18.2070  -32.5690   54.0260 C   0  0  0  0  0  3  0  0  0  0  0  0
  -17.8000  -32.6920   53.0430 H   0  0  0  0  0  0  0  0  0  0  0  0
  -18.3940  -31.8320   53.2740 H   0  0  0  0  0  0  0  0  0  0  0  0
  -17.9440  -33.6040   55.0790 C   0  0  0  0  0  0  0  0  0  0  0  0
  -18.3500  -33.4810   56.0620 H   0  0  0  0  0  0  0  0  0  0  0  0
  -17.3510  -34.4630   54.8500 H   0  0  0  0  0  0  0  0  0  0  0  0
  -17.7560  -34.3410   55.8310 H   0  0  0  0  0  0  0  0  0  0  0  0
  -20.6580  -26.8020   55.6740 C   0  0  0  0  0  0  0  0  0  0  0  0
  -21.8340  -25.8940   55.8790 C   0  0  0  0  0  0  0  0  0  0  0  0
  -23.0090  -24.9850   56.0850 C   0  0  0  0  0  0  0  0  0  0  0  0
  -22.0790  -23.8590   56.4250 C   0  0  0  0  0  0  0  0  0  0  0  0
  -21.0210  -24.0180   56.4190 H   0  0  0  0  0  0  0  0  0  0  0  0
  -22.4740  -22.8950   56.6730 H   0  0  0  0  0  0  0  0  0  0  0  0
  -21.4160  -23.0550   56.6680 H   0  0  0  0  0  0  0  0  0  0  0  0
  -23.9390  -26.1120   55.7440 C   0  0  0  0  0  0  0  0  0  0  0  0
  -24.9980  -25.9520   55.7500 H   0  0  0  0  0  0  0  0  0  0  0  0
  -23.5440  -27.0750   55.4960 H   0  0  0  0  0  0  0  0  0  0  0  0
  -24.6030  -26.9160   55.5020 H   0  0  0  0  0  0  0  0  0  0  0  0
  -24.1850  -24.0770   56.2900 O   0  0  0  0  0  0  0  0  0  0  0  0
  -24.0440  -23.1520   56.5470 H   0  0  0  0  0  0  0  0  0  0  0  0
  -15.9550  -30.4370   54.8520 O   0  0  0  0  0  0  0  0  0  0  0  0
  -15.2330  -31.0080   56.0360 C   0  0  0  0  0  2  0  0  0  0  0  0
  -16.0100  -31.5880   57.1800 C   0  0  0  0  0  2  0  0  0  0  0  0
  -15.2880  -32.1600   58.3640 C   0  0  0  0  0  2  0  0  0  0  0  0
  -13.7890  -32.1510   58.4030 N   0  0  0  0  0  1  0  0  0  0  0  0
  -13.0110  -31.5710   57.2590 C   0  0  0  0  0  2  0  0  0  0  0  0
  -13.7330  -31.0000   56.0750 C   0  0  0  0  0  2  0  0  0  0  0  0
  -14.7180  -31.4160   56.8800 H   0  0  0  0  0  0  0  0  0  0  0  0
  -17.0800  -31.5950   57.1510 H   0  0  0  0  0  0  0  0  0  0  0  0
  -16.5650  -32.0020   57.9960 H   0  0  0  0  0  0  0  0  0  0  0  0
  -15.8420  -32.5740   59.1800 H   0  0  0  0  0  0  0  0  0  0  0  0
  -14.7730  -32.5680   59.2090 H   0  0  0  0  0  0  0  0  0  0  0  0
  -13.2970  -32.5400   59.2080 H   0  0  0  0  0  0  0  0  0  0  0  0
  -11.9420  -31.5650   57.2880 H   0  0  0  0  0  0  0  0  0  0  0  0
  -12.4570  -31.1570   56.4430 H   0  0  0  0  0  0  0  0  0  0  0  0
  -13.1790  -30.5860   55.2590 H   0  0  0  0  0  0  0  0  0  0  0  0
  -14.2490  -30.5920   55.2300 H   0  0  0  0  0  0  0  0  0  0  0  0
  2  3  1  0
  3  4  1  0
  4  5  1  0
  5 26  1  0
  5  6  2  0
  7 10  1  0
  7  6  1  0
  8  7  2  0
  9  4  2  0
  9  8  1  0
 11 12  2  0
 11  2  1  0
 13 12  1  0
 14 15  2  0
 14 13  1  0
 15 11  1  0
 16 17  1  0
 16 15  1  0
 18 16  1  0
 19 22  1  0
 20 19  1  0
 21 19  1  0
 22 25  1  0
 22 23  1  0
 24 22  1  0
 26 27  3  0
 27 28  1  0
 28 37  1  0
 28 29  1  0
 29 32  1  0
 29 31  1  0
 30 29  1  0
 33 34  1  0
 33 28  1  0
 35 33  1  0
 36 33  1  0
 37 38  1  0
 39  8  1  0
 39 40  1  0
 40 46  1  0
 41 48  1  0
 42 49  1  0
 42 50  1  0
 43 51  1  0
 44 52  1  0
 47 41  1  0
 53 44  1  0
 54 45  1  0
 55 45  1  0
M  END
>  <minimizedAffinity>  (32) 
-8.82265568

$$$$

     RDKit          3D

 56 53  0  0  1  0  0  0  0  0999 V2000
  -17.3180  -32.4820   55.6830 C   0  0  0  0  0  3  0  0  0  0  0  0
  -17.8320  -33.8660   55.4150 N   0  0  0  0  0  0  0  0  0  0  0  0
  -19.1010  -33.7430   54.6250 C   0  0  0  0  0  0  0  0  0  0  0  0
  -19.3720  -32.2840   54.4050 N   0  0  0  0  0  0  0  0  0  0  0  0
  -18.2700  -31.5040   55.0590 C   0  0  0  0  0  0  0  0  0  0  0  0
  -19.6850  -34.5260   54.2920 H   0  0  0  0  0  0  0  0  0  0  0  0
  -20.5400  -31.7060   53.6620 C   0  0  0  0  0  1  0  0  0  0  0  0
  -20.3320  -30.5700   52.7070 C   0  0  0  0  0  2  0  0  0  0  0  0
  -21.5000  -29.9920   51.9630 C   0  0  0  0  0  2  0  0  0  0  0  0
  -22.8750  -30.5510   52.1760 N   0  0  0  0  0  1  0  0  0  0  0  0
  -23.0830  -31.6880   53.1320 C   0  0  0  0  0  2  0  0  0  0  0  0
  -21.9150  -32.2650   53.8750 C   0  0  0  0  0  2  0  0  0  0  0  0
  -21.3720  -31.2940   53.1320 H   0  0  0  0  0  0  0  0  0  0  0  0
  -19.3510  -30.1700   52.5540 H   0  0  0  0  0  0  0  0  0  0  0  0
  -20.1840  -29.7580   52.0240 H   0  0  0  0  0  0  0  0  0  0  0  0
  -21.3520  -29.1810   51.2810 H   0  0  0  0  0  0  0  0  0  0  0  0
  -22.3330  -29.5800   51.4330 H   0  0  0  0  0  0  0  0  0  0  0  0
  -23.6690  -30.1580   51.6700 H   0  0  0  0  0  0  0  0  0  0  0  0
  -24.0640  -32.0870   53.2840 H   0  0  0  0  0  0  0  0  0  0  0  0
  -23.2310  -32.4990   53.8140 H   0  0  0  0  0  0  0  0  0  0  0  0
  -22.0630  -33.0770   54.5570 H   0  0  0  0  0  0  0  0  0  0  0  0
  -21.0820  -32.6780   54.4050 H   0  0  0  0  0  0  0  0  0  0  0  0
  -12.3310  -31.0990   58.7190 F   0  0  0  0  0  0  0  0  0  0  0  0
  -13.5770  -31.4450   57.9600 C   0  0  0  0  0  0  0  0  0  0  0  0
  -13.5510  -31.5050   56.4620 C   0  0  0  0  0  0  0  0  0  0  0  0
  -14.7980  -31.8510   55.7030 C   0  0  0  0  0  0  0  0  0  0  0  0
  -16.0710  -32.1360   56.4420 C   0  0  0  0  0  0  0  0  0  0  0  0
  -16.0980  -32.0760   57.9410 C   0  0  0  0  0  0  0  0  0  0  0  0
  -14.8510  -31.7300   58.7000 C   0  0  0  0  0  0  0  0  0  0  0  0
  -12.6750  -31.3090   55.9520 H   0  0  0  0  0  0  0  0  0  0  0  0
  -14.7790  -31.8920   54.6710 H   0  0  0  0  0  0  0  0  0  0  0  0
  -16.9740  -32.2720   58.4500 H   0  0  0  0  0  0  0  0  0  0  0  0
  -14.8690  -31.6880   59.7310 H   0  0  0  0  0  0  0  0  0  0  0  0
  -18.1420  -30.0100   55.0850 C   0  0  0  0  0  0  0  0  0  0  0  0
  -17.0950  -29.3320   54.2530 C   0  0  0  0  0  0  0  0  0  0  0  0
  -16.9660  -27.8380   54.2790 C   0  0  0  0  0  3  0  0  0  0  0  0
  -17.8860  -27.0220   55.1380 N   0  0  0  0  0  0  0  0  0  0  0  0
  -18.9340  -27.7000   55.9700 C   0  0  0  0  0  0  0  0  0  0  0  0
  -19.0620  -29.1940   55.9440 N   0  0  0  0  0  0  0  0  0  0  0  0
  -16.4610  -29.8940   53.6620 H   0  0  0  0  0  0  0  0  0  0  0  0
  -16.2460  -27.3720   53.7060 H   0  0  0  0  0  0  0  0  0  0  0  0
  -19.8540  -26.8840   56.8290 O   0  0  0  0  0  0  0  0  0  0  0  0
  -21.1880  -26.4490   56.2970 C   0  0  0  0  0  0  0  0  0  0  0  0
  -21.6240  -25.0210   56.4410 C   0  0  0  0  0  0  0  0  0  0  0  0
  -22.9570  -24.5870   55.9090 C   0  0  0  0  0  0  0  0  0  0  0  0
  -23.8550  -25.5810   55.2330 C   0  0  0  0  0  0  0  0  0  0  0  0
  -23.4190  -27.0090   55.0900 C   0  0  0  0  0  0  0  0  0  0  0  0
  -22.0850  -27.4430   55.6220 C   0  0  0  0  0  0  0  0  0  0  0  0
  -21.0060  -24.3380   56.9050 H   0  0  0  0  0  0  0  0  0  0  0  0
  -23.2570  -23.6040   56.0070 H   0  0  0  0  0  0  0  0  0  0  0  0
  -24.7720  -25.2830   54.8670 H   0  0  0  0  0  0  0  0  0  0  0  0
  -21.7850  -28.4260   55.5230 H   0  0  0  0  0  0  0  0  0  0  0  0
  -24.3170  -28.0030   54.4140 C   0  0  0  0  0  0  0  0  0  0  0  0
  -25.2150  -28.9960   53.7400 F   0  0  0  0  0  0  0  0  0  0  0  0
  -23.6840  -27.6790   53.0950 F   0  0  0  0  0  0  0  0  0  0  0  0
  -24.9510  -28.3270   55.7350 F   0  0  0  0  0  0  0  0  0  0  0  0
  1 27  1  0
  2  1  1  0
  3  2  2  0
  4  3  1  0
  4  5  2  0
  5 34  1  0
  5  1  1  0
  6  3  1  0
 11 19  1  0
 11 20  1  0
 12 22  1  0
 12 21  1  0
 13  7  1  0
 14  8  1  0
 15  8  1  0
 16  9  1  0
 17  9  1  0
 18 10  1  0
 24 29  1  0
 24 23  1  0
 25 24  2  0
 26 27  2  0
 26 25  1  0
 27 28  1  0
 28 32  1  0
 28 29  2  0
 29 33  1  0
 30 25  1  0
 31 26  1  0
 34 39  1  0
 35 36  1  0
 35 34  2  0
 36 37  1  0
 37 38  2  0
 38 42  1  0
 39 38  2  0
 40 35  1  0
 41 36  1  0
 43 44  1  0
 43 42  1  0
 44 49  1  0
 45 50  1  0
 45 44  2  0
 46 45  1  0
 47 46  2  0
 47 48  1  0
 48 43  2  0
 51 46  1  0
 52 48  1  0
 53 47  1  0
 53 56  1  0
 54 53  1  0
 55 53  1  0
M  END
>  <minimizedAffinity>  (33) 
-9.57322788

$$$$

     RDKit          3D

 50 48  0  0  0  0  0  0  0  0999 V2000
  -26.8570  -26.8630   55.7150 C   0  0  0  0  0  0  0  0  0  0  0  0
  -25.7930  -25.9240   56.2030 N   0  0  0  0  0  0  0  0  0  0  0  0
  -24.4690  -26.4230   55.7050 C   0  0  0  0  0  0  0  0  0  0  0  0
  -24.7140  -27.6710   54.9090 N   0  0  0  0  0  0  0  0  0  0  0  0
  -23.7850  -28.5950   54.1790 N   0  0  0  0  0  0  0  0  0  0  0  0
  -24.3300  -29.7910   53.4560 C   0  0  0  0  0  0  0  0  0  0  0  0
  -23.4010  -30.7140   52.7270 N   0  0  0  0  0  0  0  0  0  0  0  0
  -25.8050  -30.0620   53.4630 N   0  0  0  0  0  0  0  0  0  0  0  0
  -26.7350  -29.1390   54.1930 C   0  0  0  0  0  0  0  0  0  0  0  0
  -26.1890  -27.9430   54.9160 C   0  0  0  0  0  0  0  0  0  0  0  0
  -23.7580  -31.5000   52.2520 H   0  0  0  0  0  0  0  0  0  0  0  0
  -27.7500  -29.3250   54.1970 H   0  0  0  0  0  0  0  0  0  0  0  0
  -23.1350  -25.7870   55.9570 C   0  0  0  0  0  0  0  0  0  0  0  0
  -23.0440  -24.3110   56.2100 C   0  0  0  0  0  0  0  0  0  0  0  0
  -21.7090  -23.6740   56.4630 C   0  0  0  0  0  0  0  0  0  0  0  0
  -20.4660  -24.5140   56.4630 C   0  0  0  0  0  0  0  0  0  0  0  0
  -20.5570  -25.9890   56.2100 C   0  0  0  0  0  0  0  0  0  0  0  0
  -21.8910  -26.6250   55.9580 C   0  0  0  0  0  0  0  0  0  0  0  0
  -23.8990  -23.7340   56.2100 H   0  0  0  0  0  0  0  0  0  0  0  0
  -21.6470  -22.6590   56.6370 H   0  0  0  0  0  0  0  0  0  0  0  0
  -19.5480  -24.0750   56.6370 H   0  0  0  0  0  0  0  0  0  0  0  0
  -19.7020  -26.5670   56.2100 H   0  0  0  0  0  0  0  0  0  0  0  0
  -21.9540  -27.6410   55.7840 H   0  0  0  0  0  0  0  0  0  0  0  0
  -28.3280  -26.7430   55.9800 C   0  0  0  0  0  0  0  0  0  0  0  0
  -29.0040  -27.4720   55.5840 H   0  0  0  0  0  0  0  0  0  0  0  0
  -28.7020  -25.9300   56.5670 H   0  0  0  0  0  0  0  0  0  0  0  0
  -29.3780  -26.6580   56.1700 H   0  0  0  0  0  0  0  0  0  0  0  0
  -21.9250  -30.4430   52.7200 C   0  0  0  0  0  0  0  0  0  0  0  0
  -21.4910  -29.8680   51.9290 H   0  0  0  0  0  0  0  0  0  0  0  0
  -20.8730  -30.2490   52.7160 H   0  0  0  0  0  0  0  0  0  0  0  0
  -21.0600  -30.9770   53.8230 C   0  0  0  0  0  0  0  0  0  0  0  0
  -20.8340  -32.0220   53.8670 H   0  0  0  0  0  0  0  0  0  0  0  0
  -20.4420  -31.3580   54.6090 H   0  0  0  0  0  0  0  0  0  0  0  0
  -20.5100  -30.0460   54.8630 C   0  0  0  0  0  0  0  0  0  0  0  0
  -21.1640  -29.6110   55.5900 H   0  0  0  0  0  0  0  0  0  0  0  0
  -20.1180  -29.3820   55.6050 H   0  0  0  0  0  0  0  0  0  0  0  0
  -19.0450  -29.7250   54.8840 N   0  0  0  0  0  2  0  0  0  0  0  0
  -18.0880  -30.6350   55.5950 C   0  0  0  0  0  3  0  0  0  0  0  0
  -16.6230  -30.3140   55.6160 C   0  0  0  0  0  2  0  0  0  0  0  0
  -16.1150  -29.0840   54.9250 O   0  0  0  0  0 15  0  0  0  0  0  0
  -17.0720  -28.1740   54.2130 C   0  0  0  0  0  2  0  0  0  0  0  0
  -18.5370  -28.4950   54.1920 C   0  0  0  0  0  2  0  0  0  0  0  0
  -18.4500  -31.5120   56.0880 H   0  0  0  0  0  0  0  0  0  0  0  0
  -17.4060  -31.2840   56.1030 H   0  0  0  0  0  0  0  0  0  0  0  0
  -15.9400  -30.9630   56.1240 H   0  0  0  0  0  0  0  0  0  0  0  0
  -15.5780  -30.0850   55.6310 H   0  0  0  0  0  0  0  0  0  0  0  0
  -16.7090  -27.2960   53.7200 H   0  0  0  0  0  0  0  0  0  0  0  0
  -17.7550  -27.5250   53.7050 H   0  0  0  0  0  0  0  0  0  0  0  0
  -19.2200  -27.8460   53.6850 H   0  0  0  0  0  0  0  0  0  0  0  0
  -19.5820  -28.7230   54.1770 H   0  0  0  0  0  0  0  0  0  0  0  0
  1 24  1  0
  1  2  1  0
  3 13  1  0
  3  2  2  0
  4 10  1  0
  4  3  1  0
  5  4  1  0
  6  8  1  0
  6  5  2  0
  7  6  1  0
  8  9  2  0
  9 12  1  0
  9 10  1  0
 10  1  2  0
 11  7  1  0
 13 18  2  0
 13 14  1  0
 14 15  2  0
 15 20  1  0
 16 15  1  0
 16 21  1  0
 17 16  2  0
 18 17  1  0
 19 14  1  0
 22 17  1  0
 23 18  1  0
 24 27  1  0
 24 26  1  0
 25 24  1  0
 28  7  1  0
 28 31  1  0
 29 28  1  0
 30 28  1  0
 31 32  1  0
 31 33  1  0
 31 34  1  0
 34 37  1  0
 34 35  1  0
 34 36  1  0
 37 38  1  0
 38 43  1  0
 38 44  1  0
 39 46  1  0
 39 45  1  0
 47 41  1  0
 48 41  1  0
 49 42  1  0
 50 42  1  0
M  END
>  <minimizedAffinity>  (34) 
-9.74125481

$$$$

     RDKit          3D

 38 39  0  0  0  0  0  0  0  0999 V2000
  -19.9760  -27.2420   56.1520 C   0  0  0  0  0  0  0  0  0  0  0  0
  -20.8330  -26.5770   55.1160 C   0  0  0  0  0  0  0  0  0  0  0  0
  -20.3990  -27.5870   57.0280 H   0  0  0  0  0  0  0  0  0  0  0  0
  -20.4100  -26.2320   54.2400 H   0  0  0  0  0  0  0  0  0  0  0  0
  -16.1280  -26.3760   55.7150 C   0  0  0  0  0  0  0  0  0  0  0  0
  -15.5610  -27.7370   55.4380 C   0  0  0  0  0  0  0  0  0  0  0  0
  -16.4650  -28.9330   55.3990 N   0  0  0  0  0  0  0  0  0  0  0  0
  -17.9370  -28.7680   55.6370 C   0  0  0  0  0  0  0  0  0  0  0  0
  -18.5040  -27.4070   55.9140 C   0  0  0  0  0  0  0  0  0  0  0  0
  -17.6000  -26.2110   55.9530 C   0  0  0  0  0  0  0  0  0  0  0  0
  -14.5480  -27.8510   55.2750 H   0  0  0  0  0  0  0  0  0  0  0  0
  -18.5600  -29.5910   55.6100 H   0  0  0  0  0  0  0  0  0  0  0  0
  -17.9900  -25.2750   56.1430 H   0  0  0  0  0  0  0  0  0  0  0  0
  -15.2230  -25.1800   55.7540 C   0  0  0  0  0  0  0  0  0  0  0  0
  -13.9290  -25.2430   56.5100 O   0  0  0  0  0  0  0  0  0  0  0  0
  -15.6130  -23.9220   55.0370 O   0  0  0  0  0  0  0  0  0  0  0  0
  -14.7060  -22.7270   55.0730 C   0  0  0  0  0  0  0  0  0  0  0  0
  -14.9840  -21.8290   54.5610 H   0  0  0  0  0  0  0  0  0  0  0  0
  -13.7810  -22.7730   55.6100 H   0  0  0  0  0  0  0  0  0  0  0  0
  -14.0590  -21.8750   55.0980 H   0  0  0  0  0  0  0  0  0  0  0  0
  -22.3050  -26.4120   55.3540 C   0  0  0  0  0  0  0  0  0  0  0  0
  -23.2580  -27.4890   54.9300 C   0  0  0  0  0  0  0  0  0  0  0  0
  -24.7300  -27.3250   55.1680 C   0  0  0  0  0  0  0  0  0  0  0  0
  -25.2490  -26.0820   55.8290 C   0  0  0  0  0  0  0  0  0  0  0  0
  -24.2950  -25.0040   56.2530 C   0  0  0  0  0  0  0  0  0  0  0  0
  -22.8230  -25.1690   56.0150 C   0  0  0  0  0  0  0  0  0  0  0  0
  -25.3860  -28.0660   54.8770 H   0  0  0  0  0  0  0  0  0  0  0  0
  -24.6520  -24.1490   56.7080 H   0  0  0  0  0  0  0  0  0  0  0  0
  -22.7400  -28.7320   54.2690 C   0  0  0  0  0  0  0  0  0  0  0  0
  -21.6910  -28.8500   54.0990 H   0  0  0  0  0  0  0  0  0  0  0  0
  -23.4200  -29.5010   53.9670 H   0  0  0  0  0  0  0  0  0  0  0  0
  -22.3700  -29.6180   53.7970 H   0  0  0  0  0  0  0  0  0  0  0  0
  -21.8700  -24.0910   56.4390 C   0  0  0  0  0  0  0  0  0  0  0  0
  -22.2400  -23.2050   56.9100 H   0  0  0  0  0  0  0  0  0  0  0  0
  -20.8200  -24.2090   56.2690 H   0  0  0  0  0  0  0  0  0  0  0  0
  -21.1890  -23.3230   56.7410 H   0  0  0  0  0  0  0  0  0  0  0  0
  -26.7200  -25.9170   56.0670 O   0  0  0  0  0  0  0  0  0  0  0  0
  -27.3160  -26.5910   55.8020 H   0  0  0  0  0  0  0  0  0  0  0  0
  1  3  1  0
  2 21  1  0
  2  1  2  0
  4  2  1  0
  5 14  1  0
  5 10  1  0
  6  5  2  0
  7  6  1  0
  7  8  2  0
  8  9  1  0
  9 10  2  0
  9  1  1  0
 10 13  1  0
 11  6  1  0
 12  8  1  0
 14 15  2  0
 16 17  1  0
 16 14  1  0
 17 20  1  0
 17 19  1  0
 18 17  1  0
 21 26  1  0
 22 23  1  0
 22 21  2  0
 23 24  2  0
 24 37  1  0
 24 25  1  0
 25 28  1  0
 26 25  2  0
 26 33  1  0
 27 23  1  0
 29 22  1  0
 30 29  1  0
 31 29  1  0
 32 29  1  0
 33 36  1  0
 33 34  1  0
 35 33  1  0
 38 37  1  0
M  END
>  <minimizedAffinity>  (35) 
-8.23766804

$$$$

     RDKit          3D

 55 54  0  0  1  0  0  0  0  0999 V2000
  -18.1700  -31.2400   55.1480 C   0  0  0  0  0  0  0  0  0  0  0  0
  -17.2760  -32.2740   55.7650 C   0  0  0  0  0  0  0  0  0  0  0  0
  -17.8620  -33.6240   55.4800 N   0  0  0  0  0  0  0  0  0  0  0  0
  -19.1190  -33.4250   54.6850 C   0  0  0  0  0  0  0  0  0  0  0  0
  -19.3090  -31.9510   54.4800 N   0  0  0  0  0  0  0  0  0  0  0  0
  -19.7430  -34.1700   54.3400 H   0  0  0  0  0  0  0  0  0  0  0  0
  -20.4390  -31.3030   53.7370 C   0  0  0  0  0  2  0  0  0  0  0  0
  -20.1660  -30.1660   52.7980 C   0  0  0  0  0  2  0  0  0  0  0  0
  -21.2970  -29.5170   52.0560 C   0  0  0  0  0  2  0  0  0  0  0  0
  -22.7010  -30.0060   52.2530 N   0  0  0  0  0  2  0  0  0  0  0  0
  -22.9740  -31.1420   53.1920 C   0  0  0  0  0  3  0  0  0  0  0  0
  -21.8440  -31.7910   53.9350 C   0  0  0  0  0  2  0  0  0  0  0  0
  -21.2460  -30.8400   53.2080 H   0  0  0  0  0  0  0  0  0  0  0  0
  -19.1640  -29.8170   52.6580 H   0  0  0  0  0  0  0  0  0  0  0  0
  -19.9710  -29.3540   52.1280 H   0  0  0  0  0  0  0  0  0  0  0  0
  -21.1010  -28.7060   51.3860 H   0  0  0  0  0  0  0  0  0  0  0  0
  -22.1030  -29.0550   51.5270 H   0  0  0  0  0  0  0  0  0  0  0  0
  -23.4700  -29.5650   51.7490 H   0  0  0  0  0  0  0  0  0  0  0  0
  -23.9770  -31.4910   53.3330 H   0  0  0  0  0  0  0  0  0  0  0  0
  -23.1700  -31.9540   53.8620 H   0  0  0  0  0  0  0  0  0  0  0  0
  -22.0390  -32.6020   54.6040 H   0  0  0  0  0  0  0  0  0  0  0  0
  -21.0370  -32.2530   54.4640 H   0  0  0  0  0  0  0  0  0  0  0  0
  -16.0160  -32.0040   56.5350 C   0  0  0  0  0  0  0  0  0  0  0  0
  -16.0470  -31.9670   58.0340 C   0  0  0  0  0  0  0  0  0  0  0  0
  -14.7880  -31.6980   58.8030 C   0  0  0  0  0  0  0  0  0  0  0  0
  -13.4980  -31.4650   58.0730 C   0  0  0  0  0  0  0  0  0  0  0  0
  -12.2390  -31.1950   58.8430 F   0  0  0  0  0  0  0  0  0  0  0  0
  -13.4680  -31.5020   56.5730 C   0  0  0  0  0  0  0  0  0  0  0  0
  -14.7270  -31.7720   55.8050 C   0  0  0  0  0  0  0  0  0  0  0  0
  -16.9340  -32.1270   58.5360 H   0  0  0  0  0  0  0  0  0  0  0  0
  -14.8090  -31.6720   59.8350 H   0  0  0  0  0  0  0  0  0  0  0  0
  -12.5810  -31.3420   56.0720 H   0  0  0  0  0  0  0  0  0  0  0  0
  -14.7060  -31.7970   54.7730 H   0  0  0  0  0  0  0  0  0  0  0  0
  -18.7900  -27.3840   55.8570 C   0  0  0  0  0  0  0  0  0  0  0  0
  -17.5440  -26.7850   55.2760 N   0  0  0  0  0  0  0  0  0  0  0  0
  -16.5070  -27.6710   54.6520 C   0  0  0  0  0  0  0  0  0  0  0  0
  -16.7150  -29.1550   54.6090 C   0  0  0  0  0  0  0  0  0  0  0  0
  -17.9610  -29.7550   55.1910 C   0  0  0  0  0  3  0  0  0  0  0  0
  -18.9990  -28.8690   55.8150 N   0  0  0  0  0  0  0  0  0  0  0  0
  -15.6490  -27.2580   54.2520 H   0  0  0  0  0  0  0  0  0  0  0  0
  -16.0010  -29.7650   54.1800 H   0  0  0  0  0  0  0  0  0  0  0  0
  -19.8280  -26.4990   56.4810 O   0  0  0  0  0  0  0  0  0  0  0  0
  -24.1800  -27.1000   55.5070 C   0  0  0  0  0  0  0  0  0  0  0  0
  -23.6970  -25.7640   55.9890 C   0  0  0  0  0  0  0  0  0  0  0  0
  -22.2460  -25.5640   56.3140 C   0  0  0  0  0  0  0  0  0  0  0  0
  -21.2780  -26.6990   56.1570 C   0  0  0  0  0  0  0  0  0  0  0  0
  -21.7610  -28.0350   55.6740 C   0  0  0  0  0  0  0  0  0  0  0  0
  -23.2120  -28.2350   55.3500 C   0  0  0  0  0  0  0  0  0  0  0  0
  -24.3620  -24.9830   56.0980 H   0  0  0  0  0  0  0  0  0  0  0  0
  -21.9140  -24.6450   56.6460 H   0  0  0  0  0  0  0  0  0  0  0  0
  -21.0960  -28.8160   55.5660 H   0  0  0  0  0  0  0  0  0  0  0  0
  -23.5440  -29.1550   55.0180 H   0  0  0  0  0  0  0  0  0  0  0  0
  -26.0740  -28.5400   54.4630 O   0  0  0  0  0  0  0  0  0  0  0  0
  -25.6300  -27.3000   55.1820 C   0  0  0  0  0  0  0  0  0  0  0  0
  -26.6380  -26.2610   55.5770 O   0  0  0  0  0  1  0  0  0  0  0  0
  1  2  2  0
  2 23  1  0
  3  2  1  0
  4  3  2  0
  5  4  1  0
  5  1  1  0
  6  4  1  0
  7  5  1  0
 10 11  1  0
 11 19  1  0
 11 20  1  0
 12 22  1  0
 12 21  1  0
 13  7  1  0
 14  8  1  0
 15  8  1  0
 16  9  1  0
 17  9  1  0
 18 10  1  0
 23 24  1  0
 24 30  1  0
 24 25  2  0
 25 31  1  0
 26 25  1  0
 26 27  1  0
 28 26  2  0
 29 23  2  0
 29 28  1  0
 32 28  1  0
 33 29  1  0
 34 42  1  0
 35 34  2  0
 36 35  1  0
 37 36  2  0
 37 38  1  0
 38  1  1  0
 38 39  1  0
 39 34  2  0
 40 36  1  0
 41 37  1  0
 43 44  1  0
 44 49  1  0
 44 45  2  0
 45 50  1  0
 46 45  1  0
 46 42  1  0
 47 46  2  0
 48 43  2  0
 48 47  1  0
 51 47  1  0
 52 48  1  0
 53 54  2  0
 54 43  1  0
 54 55  1  0
M  END
>  <minimizedAffinity>  (36) 
-9.03369427

$$$$

     RDKit          3D

 36 35  0  0  0  0  0  0  0  0999 V2000
  -13.1090  -30.5570   55.6350 O   0  0  0  0  0  1  0  0  0  0  0  0
  -14.1730  -31.6010   55.8070 C   0  0  0  0  0  2  0  0  0  0  0  0
  -15.6180  -31.2030   55.8230 N   0  0  0  0  0  0  0  0  0  0  0  0
  -16.0010  -29.7620   55.6670 C   0  0  0  0  0  0  0  0  0  0  0  0
  -15.0540  -28.6120   55.4870 N   0  0  0  0  0  0  0  0  0  0  0  0
  -15.8660  -27.3560   55.3720 N   0  0  0  0  0  0  0  0  0  0  0  0
  -17.3150  -27.7290   55.4810 C   0  0  0  0  0  0  0  0  0  0  0  0
  -18.5690  -26.9070   55.4370 C   0  0  0  0  0  0  0  0  0  0  0  0
  -19.9060  -27.5720   55.5760 C   0  0  0  0  0  0  0  0  0  0  0  0
  -19.9900  -29.0590   55.7580 C   0  0  0  0  0  0  0  0  0  0  0  0
  -18.7360  -29.8800   55.8010 C   0  0  0  0  0  0  0  0  0  0  0  0
  -17.3980  -29.2160   55.6630 C   0  0  0  0  0  0  0  0  0  0  0  0
  -16.3170  -31.8890   55.9360 H   0  0  0  0  0  0  0  0  0  0  0  0
  -15.5100  -26.4470   55.2480 H   0  0  0  0  0  0  0  0  0  0  0  0
  -18.5110  -25.8850   55.3120 H   0  0  0  0  0  0  0  0  0  0  0  0
  -20.9100  -29.5160   55.8530 H   0  0  0  0  0  0  0  0  0  0  0  0
  -18.7930  -30.9030   55.9260 H   0  0  0  0  0  0  0  0  0  0  0  0
  -21.1600  -26.7500   55.5320 C   0  0  0  0  0  0  0  0  0  0  0  0
  -21.2960  -25.5410   56.4100 C   0  0  0  0  0  0  0  0  0  0  0  0
  -22.5500  -24.7190   56.3670 C   0  0  0  0  0  0  0  0  0  0  0  0
  -22.6850  -23.5110   57.2440 F   0  0  0  0  0  0  0  0  0  0  0  0
  -23.6680  -25.1060   55.4450 C   0  0  0  0  0  0  0  0  0  0  0  0
  -23.5330  -26.3150   54.5670 C   0  0  0  0  0  0  0  0  0  0  0  0
  -22.2790  -27.1370   54.6110 C   0  0  0  0  0  0  0  0  0  0  0  0
  -22.1440  -28.3450   53.7330 F   0  0  0  0  0  0  0  0  0  0  0  0
  -20.5260  -25.2750   57.0440 H   0  0  0  0  0  0  0  0  0  0  0  0
  -24.5310  -24.5410   55.4150 H   0  0  0  0  0  0  0  0  0  0  0  0
  -24.3030  -26.5810   53.9330 H   0  0  0  0  0  0  0  0  0  0  0  0
  -13.7890  -33.0440   55.9630 C   0  0  0  0  0 15  0  0  0  0  0  0
  -13.9500  -34.3620   56.6600 C   0  0  0  0  0  3  0  0  0  0  0  0
  -12.9650  -34.2220   55.5360 C   0  0  0  0  0  2  0  0  0  0  0  0
  -13.5160  -34.0720   56.0750 H   0  0  0  0  0  0  0  0  0  0  0  0
  -14.4200  -34.9630   57.4090 H   0  0  0  0  0  0  0  0  0  0  0  0
  -13.5040  -35.3300   56.5600 H   0  0  0  0  0  0  0  0  0  0  0  0
  -12.2200  -34.6490   54.8980 H   0  0  0  0  0  0  0  0  0  0  0  0
  -12.6620  -33.4240   54.8920 H   0  0  0  0  0  0  0  0  0  0  0  0
  1  2  1  0
  2  3  1  0
  3 13  1  0
  4  3  1  0
  5  4  2  0
  6  7  1  0
  6  5  1  0
  7 12  1  0
  8  7  2  0
  8  9  1  0
  9 10  2  0
 10 11  1  0
 10 16  1  0
 11 17  1  0
 12  4  1  0
 12 11  2  0
 14  6  1  0
 15  8  1  0
 18  9  1  0
 18 19  1  0
 19 26  1  0
 20 19  2  0
 20 21  1  0
 22 20  1  0
 23 24  1  0
 23 22  2  0
 24 18  2  0
 25 24  1  0
 27 22  1  0
 28 23  1  0
 30 33  1  0
 32 30  1  0
 34 30  1  0
 35 31  1  0
 36 31  1  0
M  END
>  <minimizedAffinity>  (37) 
-9.48986626

$$$$

     RDKit          3D

 28 27  0  0  0  0  0  0  0  0999 V2000
  -20.4090  -26.3390   55.8950 C   0  0  0  0  0  0  0  0  0  0  0  0
  -19.1920  -25.6930   56.4870 N   0  0  0  0  0  0  0  0  0  0  0  0
  -18.0040  -26.5440   56.1460 C   0  0  0  0  0  0  0  0  0  0  0  0
  -16.5450  -26.4040   56.4630 C   0  0  0  0  0  0  0  0  0  0  0  0
  -15.5700  -27.4350   55.9770 N   0  0  0  0  0  0  0  0  0  0  0  0
  -16.0540  -28.6060   55.1740 C   0  0  0  0  0  0  0  0  0  0  0  0
  -17.5130  -28.7460   54.8580 C   0  0  0  0  0  0  0  0  0  0  0  0
  -18.4880  -27.7150   55.3430 C   0  0  0  0  0  0  0  0  0  0  0  0
  -19.9750  -27.5880   55.1880 N   0  0  0  0  0  2  0  0  0  0  0  0
  -16.2120  -25.5980   57.0150 H   0  0  0  0  0  0  0  0  0  0  0  0
  -15.3820  -29.3150   54.8400 H   0  0  0  0  0  0  0  0  0  0  0  0
  -17.8460  -29.5520   54.3050 H   0  0  0  0  0  0  0  0  0  0  0  0
  -21.2870  -23.2400   56.4220 N   0  0  0  0  0  0  0  0  0  0  0  0
  -22.2180  -24.4000   56.2350 C   0  0  0  0  0  0  0  0  0  0  0  0
  -23.7180  -24.3400   56.2570 N   0  0  0  0  0  0  0  0  0  0  0  0
  -24.2410  -25.7270   56.0290 O   0  0  0  0  0  0  0  0  0  0  0  0
  -23.0650  -26.6450   55.8650 N   0  0  0  0  0  0  0  0  0  0  0  0
  -21.8150  -25.8250   55.9930 C   0  0  0  0  0  0  0  0  0  0  0  0
  -20.3130  -23.3800   56.3900 H   0  0  0  0  0  0  0  0  0  0  0  0
  -21.6480  -22.3370   56.5760 H   0  0  0  0  0  0  0  0  0  0  0  0
  -20.8700  -28.5430   54.4550 C   0  0  0  0  0 15  0  0  0  0  0  0
  -21.6830  -28.8920   53.2430 C   0  0  0  0  0  2  0  0  0  0  0  0
  -21.6060  -29.8480   54.3970 C   0  0  0  0  0  3  0  0  0  0  0  0
  -21.5080  -29.2250   53.9320 H   0  0  0  0  0  0  0  0  0  0  0  0
  -22.0490  -28.6410   52.2700 H   0  0  0  0  0  0  0  0  0  0  0  0
  -22.2850  -29.7260   52.9510 H   0  0  0  0  0  0  0  0  0  0  0  0
  -21.8780  -30.7800   54.8470 H   0  0  0  0  0  0  0  0  0  0  0  0
  -21.1170  -29.8500   55.3470 H   0  0  0  0  0  0  0  0  0  0  0  0
  1 18  1  0
  1  2  2  0
  3  4  1  0
  3  2  1  0
  4 10  1  0
  5  4  2  0
  6  5  1  0
  7  6  2  0
  7  8  1  0
  8  3  2  0
  9  8  1  0
  9  1  1  0
 11  6  1  0
 12  7  1  0
 13 20  1  0
 14 15  2  0
 14 13  1  0
 16 15  1  0
 17 18  2  0
 17 16  1  0
 18 14  1  0
 19 13  1  0
 23 27  1  0
 23 28  1  0
 24 23  1  0
 25 22  1  0
 26 22  1  0
M  END
>  <minimizedAffinity>  (38) 
-7.08776379

$$$$

     RDKit          3D

 56 56  0  0  0  0  0  0  0  0999 V2000
  -19.2580  -25.9310   55.0080 N   0  0  0  0  0  0  0  0  0  0  0  0
  -17.9900  -26.6730   55.3160 C   0  0  0  0  0  0  0  0  0  0  0  0
  -16.6900  -25.9300   55.4050 N   0  0  0  0  0  0  0  0  0  0  0  0
  -15.4230  -26.6710   55.7120 C   0  0  0  0  0  0  0  0  0  0  0  0
  -15.4560  -28.1550   55.9300 C   0  0  0  0  0  0  0  0  0  0  0  0
  -16.7560  -28.8980   55.8400 C   0  0  0  0  0  0  0  0  0  0  0  0
  -16.7880  -30.3810   56.0580 N   0  0  0  0  0  0  0  0  0  0  0  0
  -18.0230  -28.1560   55.5330 N   0  0  0  0  0  0  0  0  0  0  0  0
  -19.2360  -24.9580   54.8660 H   0  0  0  0  0  0  0  0  0  0  0  0
  -14.5280  -26.1600   55.7740 H   0  0  0  0  0  0  0  0  0  0  0  0
  -14.5830  -28.6650   56.1410 H   0  0  0  0  0  0  0  0  0  0  0  0
  -15.5210  -31.1230   56.3650 C   0  0  0  0  0  0  0  0  0  0  0  0
  -14.7640  -31.8020   55.2630 C   0  0  0  0  0  0  0  0  0  0  0  0
  -13.4970  -32.5430   55.5700 C   0  0  0  0  0  0  0  0  0  0  0  0
  -12.9860  -32.6050   56.9790 C   0  0  0  0  0  0  0  0  0  0  0  0
  -11.7760  -33.2560   57.5810 C   0  0  0  0  0  0  0  0  0  0  0  0
  -11.7850  -32.9780   59.0550 N   0  0  0  0  0  0  0  0  0  0  0  0
  -13.0020  -32.1560   59.3640 N   0  0  0  0  0  0  0  0  0  0  0  0
  -13.7440  -31.9250   58.0810 C   0  0  0  0  0  0  0  0  0  0  0  0
  -15.0110  -31.1840   57.7740 C   0  0  0  0  0  0  0  0  0  0  0  0
  -15.1150  -31.7600   54.2930 H   0  0  0  0  0  0  0  0  0  0  0  0
  -12.9750  -33.0110   54.8110 H   0  0  0  0  0  0  0  0  0  0  0  0
  -13.2660  -31.8260   60.2530 H   0  0  0  0  0  0  0  0  0  0  0  0
  -15.5320  -30.7160   58.5320 H   0  0  0  0  0  0  0  0  0  0  0  0
  -10.7390  -34.0450   56.8390 C   0  0  0  0  0  0  0  0  0  0  0  0
  -10.8270  -34.1850   55.7810 H   0  0  0  0  0  0  0  0  0  0  0  0
   -9.9110  -34.4700   57.3670 H   0  0  0  0  0  0  0  0  0  0  0  0
   -9.9990  -34.6090   56.3090 H   0  0  0  0  0  0  0  0  0  0  0  0
  -22.0010  -28.5670   53.8770 C   0  0  0  0  0  3  0  0  0  0  0  0
  -23.1580  -28.1590   54.7390 C   0  0  0  0  0  0  0  0  0  0  0  0
  -23.0150  -27.0090   55.6920 C   0  0  0  0  0  0  0  0  0  0  0  0
  -21.7150  -26.2670   55.7810 C   0  0  0  0  0  0  0  0  0  0  0  0
  -20.5580  -26.6740   54.9190 C   0  0  0  0  0  0  0  0  0  0  0  0
  -20.7000  -27.8240   53.9660 C   0  0  0  0  0  0  0  0  0  0  0  0
  -24.0530  -28.6700   54.6780 H   0  0  0  0  0  0  0  0  0  0  0  0
  -23.8120  -26.7290   56.2850 H   0  0  0  0  0  0  0  0  0  0  0  0
  -19.9040  -28.1040   53.3730 H   0  0  0  0  0  0  0  0  0  0  0  0
  -22.1430  -29.7170   52.9240 S   0  0  0  0  0  0  0  0  0  0  0  0
  -20.7010  -30.0700   53.1350 O   0  0  0  0  0  0  0  0  0  0  0  0
  -23.5860  -29.3630   52.7130 O   0  0  0  0  0 15  0  0  0  0  0  0
  -22.2860  -30.8670   51.9720 C   0  0  0  0  0  3  0  0  0  0  0  0
  -22.0640  -30.7320   50.9330 H   0  0  0  0  0  0  0  0  0  0  0  0
  -21.9630  -29.9120   51.6130 H   0  0  0  0  0  0  0  0  0  0  0  0
  -22.7390  -32.2050   52.4750 C   0  0  0  0  0  0  0  0  0  0  0  0
  -22.8410  -33.0260   51.7950 H   0  0  0  0  0  0  0  0  0  0  0  0
  -22.9600  -32.3400   53.5120 H   0  0  0  0  0  0  0  0  0  0  0  0
  -23.0620  -33.1600   52.8340 H   0  0  0  0  0  0  0  0  0  0  0  0
  -21.5730  -25.1170   56.7340 O   0  0  0  0  0  0  0  0  0  0  0  0
  -22.2860  -23.8250   56.4630 C   0  0  0  0  0  0  0  0  0  0  0  0
  -22.1840  -23.0050   57.1410 H   0  0  0  0  0  0  0  0  0  0  0  0
  -22.8970  -23.7240   55.5890 H   0  0  0  0  0  0  0  0  0  0  0  0
  -22.7950  -22.9040   56.2690 H   0  0  0  0  0  0  0  0  0  0  0  0
  -18.0890  -31.1240   55.9680 C   0  0  0  0  0  0  0  0  0  0  0  0
  -18.1120  -32.1820   56.1230 H   0  0  0  0  0  0  0  0  0  0  0  0
  -18.9930  -30.5950   55.7490 H   0  0  0  0  0  0  0  0  0  0  0  0
  -19.0160  -31.6540   55.9040 H   0  0  0  0  0  0  0  0  0  0  0  0
  1  2  1  0
  2  3  2  0
  2  8  1  0
  3  4  1  0
  4 10  1  0
  4  5  2  0
  5 11  1  0
  6  5  1  0
  6  7  1  0
  7 12  1  0
  8  6  2  0
  9  1  1  0
 12 20  1  0
 13 14  1  0
 13 12  2  0
 14 15  2  0
 15 16  1  0
 15 19  1  0
 16 17  2  0
 17 18  1  0
 18 23  1  0
 19 18  1  0
 20 19  2  0
 20 24  1  0
 21 13  1  0
 22 14  1  0
 25 27  1  0
 25 16  1  0
 26 25  1  0
 28 25  1  0
 29 34  2  0
 29 30  1  0
 30 31  2  0
 31 32  1  0
 31 36  1  0
 32 48  1  0
 33  1  1  0
 33 32  2  0
 34 33  1  0
 35 30  1  0
 37 34  1  0
 38 39  2  0
 41 44  1  0
 42 41  1  0
 43 41  1  0
 44 47  1  0
 44 46  1  0
 45 44  1  0
 49 48  1  0
 49 50  1  0
 51 49  1  0
 52 49  1  0
 53  7  1  0
 53 54  1  0
 55 53  1  0
 56 53  1  0
M  END
>  <minimizedAffinity>  (39) 
-8.54207802

$$$$

     RDKit          3D

 62 65  0  0  0  0  0  0  0  0999 V2000
  -20.3140  -26.0230   55.9530 N   0  0  0  0  0  0  0  0  0  0  0  0
  -19.2780  -27.0670   55.6550 C   0  0  0  0  0  0  0  0  0  0  0  0
  -19.5320  -28.5000   56.0180 C   0  0  0  0  0  0  0  0  0  0  0  0
  -18.4970  -29.5430   55.7200 C   0  0  0  0  0  0  0  0  0  0  0  0
  -17.2080  -29.1540   55.0600 C   0  0  0  0  0  0  0  0  0  0  0  0
  -16.9540  -27.7210   54.6970 C   0  0  0  0  0  0  0  0  0  0  0  0
  -17.9890  -26.6770   54.9940 C   0  0  0  0  0  0  0  0  0  0  0  0
  -20.4190  -28.7670   56.4720 H   0  0  0  0  0  0  0  0  0  0  0  0
  -18.6720  -30.5300   55.9700 H   0  0  0  0  0  0  0  0  0  0  0  0
  -16.0670  -27.4530   54.2420 H   0  0  0  0  0  0  0  0  0  0  0  0
  -17.8150  -25.6910   54.7440 H   0  0  0  0  0  0  0  0  0  0  0  0
  -16.1730  -30.1980   54.7620 N   0  0  0  0  0  0  0  0  0  0  0  0
  -15.1220  -30.5250   55.7810 C   0  0  0  0  0  0  0  0  0  0  0  0
  -15.1070  -29.8070   57.0990 O   0  0  0  0  0  0  0  0  0  0  0  0
  -14.0870  -31.5680   55.4840 N   0  0  0  0  0  0  0  0  0  0  0  0
  -16.1830  -30.6690   53.8980 H   0  0  0  0  0  0  0  0  0  0  0  0
  -14.0970  -32.0390   54.6200 H   0  0  0  0  0  0  0  0  0  0  0  0
  -13.0360  -31.8950   56.5030 C   0  0  0  0  0  0  0  0  0  0  0  0
  -13.4010  -32.6700   57.7350 C   0  0  0  0  0  0  0  0  0  0  0  0
  -14.8170  -33.1190   57.9460 Cl  0  0  0  0  0  0  0  0  0  0  0  0
  -12.3500  -32.9970   58.7540 C   0  0  0  0  0  0  0  0  0  0  0  0
  -10.9350  -32.5480   58.5430 C   0  0  0  0  0  0  0  0  0  0  0  0
  -10.5700  -31.7720   57.3110 C   0  0  0  0  0  0  0  0  0  0  0  0
  -11.6210  -31.4460   56.2920 C   0  0  0  0  0  0  0  0  0  0  0  0
  -11.2560  -30.6710   55.0610 Cl  0  0  0  0  0  0  0  0  0  0  0  0
  -12.6020  -33.5300   59.6010 H   0  0  0  0  0  0  0  0  0  0  0  0
  -10.2120  -32.7720   59.2440 H   0  0  0  0  0  0  0  0  0  0  0  0
   -9.5960  -31.4640   57.1660 H   0  0  0  0  0  0  0  0  0  0  0  0
  -21.7710  -26.3550   55.8290 C   0  0  0  0  0  0  0  0  0  0  0  0
  -22.8050  -25.2970   56.0730 C   0  0  0  0  0  0  0  0  0  0  0  0
  -24.2630  -25.6290   55.9490 C   0  0  0  0  0  0  0  0  0  0  0  0
  -24.6860  -27.0200   55.5820 N   0  0  0  0  0  0  0  0  0  0  0  0
  -23.6520  -28.0790   55.3380 C   0  0  0  0  0  0  0  0  0  0  0  0
  -24.0750  -29.4700   54.9700 N   0  0  0  0  0  0  0  0  0  0  0  0
  -22.1940  -27.7460   55.4610 N   0  0  0  0  0  0  0  0  0  0  0  0
  -22.5140  -24.3390   56.3260 H   0  0  0  0  0  0  0  0  0  0  0  0
  -24.9740  -24.9000   56.1170 H   0  0  0  0  0  0  0  0  0  0  0  0
  -23.3970  -30.1650   54.8100 H   0  0  0  0  0  0  0  0  0  0  0  0
  -25.5330  -29.8030   54.8460 C   0  0  0  0  0  0  0  0  0  0  0  0
  -26.1990  -29.7650   53.5030 C   0  0  0  0  0  0  0  0  0  0  0  0
  -27.6570  -30.0980   53.3800 C   0  0  0  0  0  0  0  0  0  0  0  0
  -28.4480  -30.4680   54.5990 C   0  0  0  0  0  0  0  0  0  0  0  0
  -27.7810  -30.5050   55.9420 C   0  0  0  0  0  0  0  0  0  0  0  0
  -26.3240  -30.1730   56.0660 C   0  0  0  0  0  0  0  0  0  0  0  0
  -25.6550  -29.5100   52.6640 H   0  0  0  0  0  0  0  0  0  0  0  0
  -28.1150  -30.0720   52.4550 H   0  0  0  0  0  0  0  0  0  0  0  0
  -29.4500  -30.6960   54.5140 H   0  0  0  0  0  0  0  0  0  0  0  0
  -25.8650  -30.1990   56.9900 H   0  0  0  0  0  0  0  0  0  0  0  0
  -28.5720  -30.8750   57.1620 C   0  0  0  0  0  0  0  0  0  0  0  0
  -28.9950  -31.8540   57.2490 H   0  0  0  0  0  0  0  0  0  0  0  0
  -29.1360  -31.1390   58.0320 H   0  0  0  0  0  0  0  0  0  0  0  0
  -28.7700  -29.8730   58.2600 S   0  0  1  0  0  0  0  0  0  0  0  0
  -29.8030  -29.1690   57.4320 O   0  0  0  0  0  0  0  0  0  0  0  0
  -27.7360  -30.5770   59.0890 O   0  0  0  0  0  0  0  0  0  0  0  0
  -28.9670  -28.8710   59.3590 C   0  0  0  0  0  0  0  0  0  0  0  0
  -29.6760  -28.0780   59.2380 H   0  0  0  0  0  0  0  0  0  0  0  0
  -28.3990  -28.9480   60.2620 H   0  0  0  0  0  0  0  0  0  0  0  0
  -29.1080  -28.1560   60.1420 H   0  0  0  0  0  0  0  0  0  0  0  0
  -19.8910  -24.6460   56.3740 C   0  0  0  0  0  0  0  0  0  0  0  0
  -18.8520  -24.4090   56.4620 H   0  0  0  0  0  0  0  0  0  0  0  0
  -20.6300  -23.9020   56.5860 H   0  0  0  0  0  0  0  0  0  0  0  0
  -19.5900  -23.6640   56.6740 H   0  0  0  0  0  0  0  0  0  0  0  0
  1 59  1  0
  2  1  1  0
  2  3  1  0
  3  8  1  0
  4  9  1  0
  4  3  2  0
  5  4  1  0
  6  7  1  0
  6  5  2  0
  7  2  2  0
 10  6  1  0
 11  7  1  0
 12  5  1  0
 12 13  1  0
 13 14  2  0
 15 13  1  0
 15 18  1  0
 16 12  1  0
 17 15  1  0
 18 19  1  0
 19 20  1  0
 19 21  2  0
 21 26  1  0
 22 21  1  0
 22 27  1  0
 23 22  2  0
 24 18  2  0
 24 23  1  0
 25 24  1  0
 28 23  1  0
 29  1  1  0
 29 30  1  0
 30 36  1  0
 31 30  2  0
 31 37  1  0
 32 31  1  0
 33 35  1  0
 33 32  2  0
 34 33  1  0
 35 29  2  0
 38 34  1  0
 39 34  1  0
 39 44  1  0
 40 39  2  0
 41 40  1  0
 41 42  2  0
 42 43  1  0
 43 44  2  0
 43 49  1  0
 44 48  1  0
 45 40  1  0
 46 41  1  0
 47 42  1  0
 49 50  1  0
 49 51  1  0
 49 52  1  0
 52 54  2  0
 52 55  1  0
 53 52  2  0
 55 58  1  0
 55 57  1  0
 56 55  1  0
 59 60  1  0
 59 61  1  0
 59 62  1  0
M  END
>  <minimizedAffinity>  (40) 
-9.4342804

$$$$

     RDKit          3D

 37 36  0  0  1  0  0  0  0  0999 V2000
  -19.1910  -28.4490   54.8130 C   0  0  0  0  0  3  0  0  0  0  0  0
  -18.2420  -29.2670   55.6370 C   0  0  0  0  0  0  0  0  0  0  0  0
  -17.5810  -30.2620   54.7300 C   0  0  0  0  0  0  0  0  0  0  0  0
  -16.5560  -31.3280   54.9860 C   0  0  0  0  0  0  0  0  0  0  0  0
  -16.0720  -32.1890   53.8580 N   0  0  0  0  0  0  0  0  0  0  0  0
  -16.6120  -31.9850   52.4730 C   0  0  0  0  0  3  0  0  0  0  0  0
  -17.6360  -30.9200   52.2170 N   0  0  0  0  0  0  0  0  0  0  0  0
  -18.1210  -30.0590   53.3460 C   0  0  0  0  0  0  0  0  0  0  0  0
  -19.1160  -28.9380   53.3970 O   0  0  0  0  0  0  0  0  0  0  0  0
  -18.0740  -29.1650   56.6500 H   0  0  0  0  0  0  0  0  0  0  0  0
  -16.2780  -32.5780   51.6970 H   0  0  0  0  0  0  0  0  0  0  0  0
  -21.8050  -25.1120   56.3240 C   0  0  0  0  0  0  0  0  0  0  0  0
  -22.4210  -26.2960   55.6390 C   0  0  0  0  0  0  0  0  0  0  0  0
  -21.5500  -27.4080   55.1360 C   0  0  0  0  0  0  0  0  0  0  0  0
  -20.0620  -27.3360   55.3170 C   0  0  0  0  0  0  0  0  0  0  0  0
  -19.4460  -26.1530   56.0020 C   0  0  0  0  0  0  0  0  0  0  0  0
  -20.3170  -25.0400   56.5050 C   0  0  0  0  0  0  0  0  0  0  0  0
  -23.4440  -26.3450   55.5150 H   0  0  0  0  0  0  0  0  0  0  0  0
  -21.9740  -28.2220   54.6650 H   0  0  0  0  0  0  0  0  0  0  0  0
  -18.4230  -26.1040   56.1260 H   0  0  0  0  0  0  0  0  0  0  0  0
  -19.8940  -24.2260   56.9770 H   0  0  0  0  0  0  0  0  0  0  0  0
  -22.6760  -23.9990   56.8280 C   0  0  0  0  0  0  0  0  0  0  0  0
  -23.7370  -24.0500   56.6990 H   0  0  0  0  0  0  0  0  0  0  0  0
  -22.2360  -23.1550   57.3160 H   0  0  0  0  0  0  0  0  0  0  0  0
  -23.2980  -23.2060   57.1870 H   0  0  0  0  0  0  0  0  0  0  0  0
  -16.0160  -31.5320   56.3700 N   0  0  0  0  0  0  0  0  0  0  0  0
  -14.6520  -31.0200   56.7260 C   0  0  0  0  0  2  0  0  0  0  0  0
  -13.8270  -30.3040   55.6970 O   0  0  0  0  0  1  0  0  0  0  0  0
  -16.5570  -32.0010   57.0460 H   0  0  0  0  0  0  0  0  0  0  0  0
  -14.1110  -31.2240   58.1110 C   0  0  0  0  0 15  0  0  0  0  0  0
  -14.1590  -30.9270   59.5800 C   0  0  0  0  0  2  0  0  0  0  0  0
  -13.1290  -31.8740   59.0390 C   0  0  0  0  0  3  0  0  0  0  0  0
  -13.7260  -31.3690   59.0980 H   0  0  0  0  0  0  0  0  0  0  0  0
  -14.6020  -30.4150   60.4080 H   0  0  0  0  0  0  0  0  0  0  0  0
  -13.5960  -31.2430   60.4350 H   0  0  0  0  0  0  0  0  0  0  0  0
  -12.2990  -32.5310   59.1990 H   0  0  0  0  0  0  0  0  0  0  0  0
  -12.8810  -32.2480   58.0670 H   0  0  0  0  0  0  0  0  0  0  0  0
  1 15  1  0
  1  2  1  0
  2 10  1  0
  3  4  1  0
  3  2  2  0
  4 26  1  0
  5  4  2  0
  6  5  1  0
  7  6  1  0
  7  8  2  0
  8  9  1  0
  8  3  1  0
  9  1  1  0
 11  6  1  0
 12 17  1  0
 12 22  1  0
 13 12  2  0
 14 15  2  0
 14 13  1  0
 15 16  1  0
 16 20  1  0
 16 17  2  0
 17 21  1  0
 18 13  1  0
 19 14  1  0
 22 25  1  0
 22 24  1  0
 23 22  1  0
 26 27  1  0
 26 29  1  0
 28 27  1  0
 31 34  1  0
 31 35  1  0
 32 33  1  0
 32 36  1  0
 37 32  1  0
M  END
>  <minimizedAffinity>  (41) 
-8.63793755

$$$$

     RDKit          3D

 51 51  0  0  0  0  0  0  0  0999 V2000
  -18.3930  -29.0420   54.1140 C   0  0  0  0  0  0  0  0  0  0  0  0
  -16.9930  -29.4360   54.4840 C   0  0  0  0  0  0  0  0  0  0  0  0
  -16.1590  -28.5270   55.3360 C   0  0  0  0  0  0  0  0  0  0  0  0
  -16.7230  -27.2230   55.8180 C   0  0  0  0  0  0  0  0  0  0  0  0
  -18.1220  -26.8290   55.4480 C   0  0  0  0  0  0  0  0  0  0  0  0
  -18.9570  -27.7390   54.5960 C   0  0  0  0  0  0  0  0  0  0  0  0
  -16.6050  -30.3330   54.1520 H   0  0  0  0  0  0  0  0  0  0  0  0
  -15.1960  -28.7980   55.5900 H   0  0  0  0  0  0  0  0  0  0  0  0
  -19.9200  -27.4680   54.3420 H   0  0  0  0  0  0  0  0  0  0  0  0
  -18.6870  -25.5260   55.9300 N   0  0  0  0  0  0  0  0  0  0  0  0
  -20.1720  -25.3470   56.0410 C   0  0  0  0  0  0  0  0  0  0  0  0
  -20.8790  -24.1080   56.5050 N   0  0  0  0  0  0  0  0  0  0  0  0
  -22.3550  -24.3720   56.4590 C   0  0  0  0  0  0  0  0  0  0  0  0
  -22.5610  -25.7730   55.9660 C   0  0  0  0  0  0  0  0  0  0  0  0
  -21.2120  -26.3760   55.7080 O   0  0  0  0  0  0  0  0  0  0  0  0
  -18.0830  -24.7880   56.1740 H   0  0  0  0  0  0  0  0  0  0  0  0
  -23.0980  -23.7050   56.7200 H   0  0  0  0  0  0  0  0  0  0  0  0
  -23.8830  -26.4520   55.7660 C   0  0  0  0  0  0  0  0  0  0  0  0
  -25.1560  -25.7260   56.0850 C   0  0  0  0  0  0  0  0  0  0  0  0
  -26.4780  -26.4050   55.8850 C   0  0  0  0  0  0  0  0  0  0  0  0
  -26.5280  -27.8110   55.3670 C   0  0  0  0  0  0  0  0  0  0  0  0
  -25.2550  -28.5380   55.0480 C   0  0  0  0  0  0  0  0  0  0  0  0
  -23.9330  -27.8590   55.2480 C   0  0  0  0  0  0  0  0  0  0  0  0
  -25.1210  -24.7570   56.4420 H   0  0  0  0  0  0  0  0  0  0  0  0
  -27.3530  -25.9040   56.1050 H   0  0  0  0  0  0  0  0  0  0  0  0
  -27.4370  -28.2780   55.2290 H   0  0  0  0  0  0  0  0  0  0  0  0
  -25.2890  -29.5060   54.6910 H   0  0  0  0  0  0  0  0  0  0  0  0
  -23.0570  -28.3600   55.0280 H   0  0  0  0  0  0  0  0  0  0  0  0
  -19.2280  -29.9520   53.2620 S   0  0  2  0  0  0  0  0  0  0  0  0
  -18.6740  -29.3040   52.0270 O   0  0  0  0  0  0  0  0  0  0  0  0
  -19.7810  -30.6000   54.4960 O   0  0  0  0  0  0  0  0  0  0  0  0
  -20.0620  -30.8610   52.4100 N   0  0  0  0  0  1  0  0  0  0  0  0
  -21.4450  -30.4470   52.0030 C   0  0  0  0  0  3  0  0  0  0  0  0
  -21.5810  -29.7400   51.2110 H   0  0  0  0  0  0  0  0  0  0  0  0
  -20.5940  -30.0350   51.5020 H   0  0  0  0  0  0  0  0  0  0  0  0
  -22.6380  -31.0250   52.7050 C   0  0  0  0  0  0  0  0  0  0  0  0
  -22.5030  -31.7330   53.4960 H   0  0  0  0  0  0  0  0  0  0  0  0
  -23.6250  -30.7300   52.4140 H   0  0  0  0  0  0  0  0  0  0  0  0
  -23.4890  -31.4380   53.2050 H   0  0  0  0  0  0  0  0  0  0  0  0
  -19.5140  -32.1850   51.9650 C   0  0  0  0  0  3  0  0  0  0  0  0
  -18.9160  -32.2460   51.0790 H   0  0  0  0  0  0  0  0  0  0  0  0
  -19.1230  -33.1290   51.6470 H   0  0  0  0  0  0  0  0  0  0  0  0
  -19.8040  -33.4220   52.7610 C   0  0  0  0  0  0  0  0  0  0  0  0
  -19.4120  -34.3670   52.4430 H   0  0  0  0  0  0  0  0  0  0  0  0
  -20.4020  -33.3610   53.6460 H   0  0  0  0  0  0  0  0  0  0  0  0
  -20.0100  -34.3050   53.3290 H   0  0  0  0  0  0  0  0  0  0  0  0
  -15.8880  -26.3140   56.6700 O   0  0  0  0  0  0  0  0  0  0  0  0
  -14.9340  -25.3510   56.0280 C   0  0  0  0  0  0  0  0  0  0  0  0
  -14.3380  -24.7020   56.6350 H   0  0  0  0  0  0  0  0  0  0  0  0
  -14.8480  -25.3130   54.9610 H   0  0  0  0  0  0  0  0  0  0  0  0
  -14.2530  -24.6640   55.5690 H   0  0  0  0  0  0  0  0  0  0  0  0
  1  2  2  0
  1  6  1  0
  2  3  1  0
  3  8  1  0
  3  4  2  0
  4 47  1  0
  5  4  1  0
  5 10  1  0
  6  5  2  0
  7  2  1  0
  9  6  1  0
 10 11  1  0
 10 16  1  0
 11 12  2  0
 13 12  1  0
 13 17  1  0
 14 13  2  0
 15 14  1  0
 15 11  1  0
 18 14  1  0
 18 19  1  0
 19 24  1  0
 20 19  2  0
 20 25  1  0
 21 20  1  0
 22 23  1  0
 22 21  2  0
 23 18  2  0
 26 21  1  0
 27 22  1  0
 28 23  1  0
 29  1  1  0
 29 31  2  0
 30 29  2  0
 32 29  1  0
 33 36  1  0
 34 33  1  0
 35 33  1  0
 36 39  1  0
 36 37  1  0
 38 36  1  0
 40 43  1  0
 41 40  1  0
 42 40  1  0
 43 46  1  0
 43 45  1  0
 44 43  1  0
 48 49  1  0
 48 47  1  0
 50 48  1  0
 51 48  1  0
M  END
>  <minimizedAffinity>  (42) 
-8.0647316

$$$$

     RDKit          3D

 40 42  0  0  0  0  0  0  0  0999 V2000
  -20.4570  -27.7610   54.8050 C   0  0  0  0  0  0  0  0  0  0  0  0
  -19.4450  -26.6850   55.0640 C   0  0  0  0  0  0  0  0  0  0  0  0
  -18.0070  -27.0460   55.2880 C   0  0  0  0  0  0  0  0  0  0  0  0
  -16.9950  -25.9690   55.5470 N   0  0  0  0  0  0  0  0  0  0  0  0
  -15.5560  -26.3310   55.7720 C   0  0  0  0  0  0  0  0  0  0  0  0
  -15.1300  -27.7680   55.7380 N   0  0  0  0  0  0  0  0  0  0  0  0
  -16.1420  -28.8450   55.4800 C   0  0  0  0  0  0  0  0  0  0  0  0
  -17.5800  -28.4840   55.2550 C   0  0  0  0  0  0  0  0  0  0  0  0
  -18.5920  -29.5600   54.9970 C   0  0  0  0  0  0  0  0  0  0  0  0
  -20.0310  -29.1990   54.7720 C   0  0  0  0  0  0  0  0  0  0  0  0
  -19.7380  -25.6960   55.0870 H   0  0  0  0  0  0  0  0  0  0  0  0
  -14.8600  -25.5900   55.9490 H   0  0  0  0  0  0  0  0  0  0  0  0
  -18.2990  -30.5490   54.9740 H   0  0  0  0  0  0  0  0  0  0  0  0
  -15.7160  -30.2830   55.4470 N   0  0  0  0  0  0  0  0  0  0  0  0
  -16.1320  -30.9050   54.8070 H   0  0  0  0  0  0  0  0  0  0  0  0
  -14.6550  -30.7730   56.3880 C   0  0  0  0  0  0  0  0  0  0  0  0
  -13.3740  -31.3340   55.8470 C   0  0  0  0  0  0  0  0  0  0  0  0
  -12.3130  -31.8240   56.7880 C   0  0  0  0  0  0  0  0  0  0  0  0
  -12.5350  -31.7520   58.2700 C   0  0  0  0  0  0  0  0  0  0  0  0
  -13.8160  -31.1910   58.8110 C   0  0  0  0  0  0  0  0  0  0  0  0
  -14.8770  -30.7010   57.8690 C   0  0  0  0  0  0  0  0  0  0  0  0
  -13.2220  -31.3830   54.8270 H   0  0  0  0  0  0  0  0  0  0  0  0
  -11.4310  -32.2100   56.4160 H   0  0  0  0  0  0  0  0  0  0  0  0
  -15.7590  -30.3150   58.2420 H   0  0  0  0  0  0  0  0  0  0  0  0
  -11.4740  -32.2420   59.2110 C   0  0  0  0  0  0  0  0  0  0  0  0
  -10.5600  -32.6430   58.8250 H   0  0  0  0  0  0  0  0  0  0  0  0
  -11.6320  -32.1910   60.2680 H   0  0  0  0  0  0  0  0  0  0  0  0
  -10.7180  -32.5920   59.8820 H   0  0  0  0  0  0  0  0  0  0  0  0
  -14.0380  -31.1200   60.2920 O   0  0  0  0  0  0  0  0  0  0  0  0
  -13.3750  -31.4260   60.8800 H   0  0  0  0  0  0  0  0  0  0  0  0
  -21.8960  -27.4000   54.5800 O   0  0  0  0  0  0  0  0  0  0  0  0
  -22.6460  -26.6260   55.6230 C   0  0  0  0  0  0  0  0  0  0  0  0
  -23.6720  -26.3680   55.4620 H   0  0  0  0  0  0  0  0  0  0  0  0
  -22.1560  -26.3310   56.5260 H   0  0  0  0  0  0  0  0  0  0  0  0
  -23.1820  -26.0730   56.3660 H   0  0  0  0  0  0  0  0  0  0  0  0
  -21.0430  -30.2760   54.5140 O   0  0  0  0  0  0  0  0  0  0  0  0
  -21.4230  -30.6250   53.1050 C   0  0  0  0  0  0  0  0  0  0  0  0
  -20.9730  -30.1070   52.2850 H   0  0  0  0  0  0  0  0  0  0  0  0
  -22.1450  -31.3930   52.9210 H   0  0  0  0  0  0  0  0  0  0  0  0
  -21.6940  -30.8750   52.1010 H   0  0  0  0  0  0  0  0  0  0  0  0
  1  2  1  0
  2 11  1  0
  2  3  2  0
  3  4  1  0
  4  5  2  0
  5 12  1  0
  6  5  1  0
  7  6  2  0
  8  3  1  0
  8  7  1  0
  9  8  2  0
 10  1  2  0
 10  9  1  0
 13  9  1  0
 14  7  1  0
 14 16  1  0
 15 14  1  0
 16 21  1  0
 17 16  2  0
 17 18  1  0
 18 19  2  0
 19 20  1  0
 19 25  1  0
 20 29  1  0
 21 24  1  0
 21 20  2  0
 22 17  1  0
 23 18  1  0
 25 28  1  0
 25 27  1  0
 26 25  1  0
 29 30  1  0
 31  1  1  0
 31 32  1  0
 32 35  1  0
 32 34  1  0
 33 32  1  0
 36 10  1  0
 37 36  1  0
 38 37  1  0
 39 37  1  0
 40 37  1  0
M  END
>  <minimizedAffinity>  (43) 
-7.43053865

$$$$

     RDKit          3D

 43 44  0  0  0  0  0  0  0  0999 V2000
  -17.6280  -32.4330   54.9990 C   0  0  0  0  0  0  0  0  0  0  0  0
  -17.0270  -33.2630   56.0950 C   0  0  0  0  0  0  0  0  0  0  0  0
  -15.9510  -32.6870   56.9670 C   0  0  0  0  0  0  0  0  0  0  0  0
  -15.4770  -31.2820   56.7440 C   0  0  0  0  0  0  0  0  0  0  0  0
  -16.0780  -30.4520   55.6490 C   0  0  0  0  0  0  0  0  0  0  0  0
  -17.1540  -31.0280   54.7760 C   0  0  0  0  0  0  0  0  0  0  0  0
  -17.3530  -34.2300   56.2490 H   0  0  0  0  0  0  0  0  0  0  0  0
  -15.5380  -33.2580   57.7210 H   0  0  0  0  0  0  0  0  0  0  0  0
  -17.5680  -30.4570   54.0230 H   0  0  0  0  0  0  0  0  0  0  0  0
  -15.6040  -29.0470   55.4260 N   0  0  0  0  0  0  0  0  0  0  0  0
  -16.5880  -27.9140   55.4230 C   0  0  0  0  0  0  0  0  0  0  0  0
  -16.2630  -26.4650   55.2140 N   0  0  0  0  0  0  0  0  0  0  0  0
  -17.5440  -25.6880   55.2910 C   0  0  0  0  0  0  0  0  0  0  0  0
  -18.6600  -26.6570   55.5470 C   0  0  0  0  0  0  0  0  0  0  0  0
  -18.0690  -28.0330   55.6290 O   0  0  0  0  0  0  0  0  0  0  0  0
  -14.6470  -28.8670   55.2810 H   0  0  0  0  0  0  0  0  0  0  0  0
  -17.6400  -24.6660   55.1860 H   0  0  0  0  0  0  0  0  0  0  0  0
  -20.1120  -26.3110   55.6950 C   0  0  0  0  0  0  0  0  0  0  0  0
  -21.1640  -27.2700   55.2240 C   0  0  0  0  0  0  0  0  0  0  0  0
  -22.6160  -26.9230   55.3720 C   0  0  0  0  0  0  0  0  0  0  0  0
  -23.0160  -25.6180   55.9910 C   0  0  0  0  0  0  0  0  0  0  0  0
  -21.9630  -24.6580   56.4630 C   0  0  0  0  0  0  0  0  0  0  0  0
  -22.3640  -23.3520   57.0840 F   0  0  0  0  0  0  0  0  0  0  0  0
  -20.5120  -25.0040   56.3150 C   0  0  0  0  0  0  0  0  0  0  0  0
  -20.8890  -28.1690   54.7970 H   0  0  0  0  0  0  0  0  0  0  0  0
  -23.3390  -27.5840   55.0470 H   0  0  0  0  0  0  0  0  0  0  0  0
  -24.0140  -25.3790   56.0940 H   0  0  0  0  0  0  0  0  0  0  0  0
  -19.7880  -24.3440   56.6400 H   0  0  0  0  0  0  0  0  0  0  0  0
  -18.7040  -33.0090   54.1270 S   0  0  0  0  0  0  0  0  0  0  0  0
  -18.6000  -31.8220   53.2160 O   0  0  0  0  0  1  0  0  0  0  0  0
  -18.8080  -34.1960   55.0380 O   0  0  0  0  0  0  0  0  0  0  0  0
  -19.7800  -33.5850   53.2550 C   0  0  0  0  0  3  0  0  0  0  0  0
  -19.5250  -34.2710   52.4730 H   0  0  0  0  0  0  0  0  0  0  0  0
  -18.7580  -33.8600   53.0960 H   0  0  0  0  0  0  0  0  0  0  0  0
  -21.2120  -33.1990   53.4770 C   0  0  0  0  0  0  0  0  0  0  0  0
  -21.9800  -33.6100   52.8550 H   0  0  0  0  0  0  0  0  0  0  0  0
  -21.4670  -32.5140   54.2580 H   0  0  0  0  0  0  0  0  0  0  0  0
  -22.2340  -32.9240   53.6360 H   0  0  0  0  0  0  0  0  0  0  0  0
  -14.4010  -30.7060   57.6170 O   0  0  0  0  0  0  0  0  0  0  0  0
  -14.3040  -31.1150   59.0570 C   0  0  0  0  0  0  0  0  0  0  0  0
  -13.5360  -30.7050   59.6790 H   0  0  0  0  0  0  0  0  0  0  0  0
  -15.0020  -31.8190   59.4610 H   0  0  0  0  0  0  0  0  0  0  0  0
  -14.2340  -31.4080   60.0840 H   0  0  0  0  0  0  0  0  0  0  0  0
  1  2  1  0
  2  7  1  0
  2  3  2  0
  3  8  1  0
  4  3  1  0
  4 39  1  0
  5  4  2  0
  6  1  2  0
  6  5  1  0
  9  6  1  0
 10  5  1  0
 11 10  1  0
 11 15  1  0
 12 13  1  0
 12 11  2  0
 13 14  2  0
 14 15  1  0
 14 18  1  0
 16 10  1  0
 17 13  1  0
 18 24  1  0
 19 20  1  0
 19 18  2  0
 20 21  2  0
 21 27  1  0
 21 22  1  0
 22 23  1  0
 24 22  2  0
 24 28  1  0
 25 19  1  0
 26 20  1  0
 29 30  1  0
 29  1  1  0
 29 31  2  0
 32 35  1  0
 33 32  1  0
 34 32  1  0
 35 38  1  0
 35 37  1  0
 36 35  1  0
 39 40  1  0
 40 42  1  0
 40 41  1  0
 40 43  1  0
M  END
>  <minimizedAffinity>  (44) 
-8.25478172

$$$$

     RDKit          3D

 47 50  0  0  1  0  0  0  0  0999 V2000
  -20.4800  -27.5880   55.5700 N   0  0  0  0  0  0  0  0  0  0  0  0
  -20.6980  -29.0560   55.3500 N   0  0  0  0  0  0  0  0  0  0  0  0
  -19.3590  -29.6960   55.1340 C   0  0  0  0  0  0  0  0  0  0  0  0
  -18.3140  -28.6230   55.2190 C   0  0  0  0  0  0  0  0  0  0  0  0
  -16.8200  -28.6650   55.0860 C   0  0  0  0  0  3  0  0  0  0  0  0
  -16.0200  -27.4030   55.2230 N   0  0  0  0  0  0  0  0  0  0  0  0
  -16.7130  -26.1010   55.4930 C   0  0  0  0  0  0  0  0  0  0  0  0
  -18.2060  -26.0590   55.6260 N   0  0  0  0  0  2  0  0  0  0  0  0
  -19.0070  -27.3210   55.4890 C   0  0  0  0  0  0  0  0  0  0  0  0
  -16.1620  -25.2330   55.5870 H   0  0  0  0  0  0  0  0  0  0  0  0
  -24.0570  -25.8890   55.8360 C   0  0  0  0  0  0  0  0  0  0  0  0
  -23.6860  -24.5240   56.3370 C   0  0  0  0  0  0  0  0  0  0  0  0
  -22.2470  -24.1810   56.5810 C   0  0  0  0  0  0  0  0  0  0  0  0
  -21.1780  -25.2020   56.3260 C   0  0  0  0  0  0  0  0  0  0  0  0
  -21.5490  -26.5670   55.8250 C   0  0  0  0  0  0  0  0  0  0  0  0
  -22.9880  -26.9100   55.5810 C   0  0  0  0  0  0  0  0  0  0  0  0
  -24.4210  -23.8210   56.5130 H   0  0  0  0  0  0  0  0  0  0  0  0
  -21.9910  -23.2420   56.9250 H   0  0  0  0  0  0  0  0  0  0  0  0
  -20.1880  -24.9660   56.4940 H   0  0  0  0  0  0  0  0  0  0  0  0
  -23.2440  -27.8490   55.2370 H   0  0  0  0  0  0  0  0  0  0  0  0
  -25.4970  -26.2330   55.5920 O   0  0  0  0  0  0  0  0  0  0  0  0
  -25.8910  -27.6520   55.3070 C   0  0  0  0  0  0  0  0  0  0  0  0
  -25.1450  -28.4190   55.2790 H   0  0  0  0  0  0  0  0  0  0  0  0
  -26.9170  -27.8980   55.1330 H   0  0  0  0  0  0  0  0  0  0  0  0
  -26.1720  -28.6640   55.1050 H   0  0  0  0  0  0  0  0  0  0  0  0
  -19.1090  -31.1520   54.8770 C   0  0  0  0  0  0  0  0  0  0  0  0
  -19.9300  -31.8370   54.8350 H   0  0  0  0  0  0  0  0  0  0  0  0
  -18.1090  -31.5070   54.7350 H   0  0  0  0  0  0  0  0  0  0  0  0
  -18.9300  -32.1920   54.6930 H   0  0  0  0  0  0  0  0  0  0  0  0
  -16.1270  -29.9670   54.8170 N   0  0  0  0  0  0  0  0  0  0  0  0
  -16.4070  -30.5260   54.0560 H   0  0  0  0  0  0  0  0  0  0  0  0
  -15.0070  -30.4190   55.7070 N   0  0  0  0  0  0  0  0  0  0  0  0
  -15.2850  -31.3510   56.8480 C   0  0  0  0  0  0  0  0  0  0  0  0
  -14.1660  -31.8030   57.7380 C   0  0  0  0  0  0  0  0  0  0  0  0
  -13.2780  -32.9340   57.3100 C   0  0  0  0  0  0  0  0  0  0  0  0
  -12.1580  -33.3860   58.2000 C   0  0  0  0  0  0  0  0  0  0  0  0
  -11.9260  -32.7070   59.5170 N   0  0  0  0  0  0  0  0  0  0  0  0
  -12.8140  -31.5760   59.9450 C   0  0  0  0  0  0  0  0  0  0  0  0
  -13.9340  -31.1240   59.0550 C   0  0  0  0  0  0  0  0  0  0  0  0
  -13.4370  -33.4010   56.4040 H   0  0  0  0  0  0  0  0  0  0  0  0
  -11.5470  -34.1640   57.9060 H   0  0  0  0  0  0  0  0  0  0  0  0
  -12.6540  -31.1090   60.8510 H   0  0  0  0  0  0  0  0  0  0  0  0
  -14.5450  -30.3460   59.3490 H   0  0  0  0  0  0  0  0  0  0  0  0
  -16.6840  -31.8320   57.1000 C   0  0  0  0  0  0  0  0  0  0  0  0
  -17.4830  -31.5100   56.4650 H   0  0  0  0  0  0  0  0  0  0  0  0
  -16.8830  -32.4970   57.9150 H   0  0  0  0  0  0  0  0  0  0  0  0
  -17.6820  -32.1750   57.2800 H   0  0  0  0  0  0  0  0  0  0  0  0
  1 15  1  0
  2  1  1  0
  3  4  1  0
  3  2  2  0
  4  9  2  0
  5 30  1  0
  5  4  1  0
  5  6  1  0
  6  7  2  0
  7 10  1  0
  7  8  1  0
  9  1  1  0
  9  8  1  0
 11 12  1  0
 12 17  1  0
 12 13  2  0
 13 18  1  0
 14 19  1  0
 14 13  1  0
 15 14  2  0
 16 15  1  0
 16 11  2  0
 20 16  1  0
 21 11  1  0
 22 21  1  0
 23 22  1  0
 24 22  1  0
 25 22  1  0
 26  3  1  0
 27 26  1  0
 28 26  1  0
 29 26  1  0
 30 32  1  0
 31 30  1  0
 32 33  2  0
 33 44  1  0
 33 34  1  0
 34 39  1  0
 35 34  2  0
 35 36  1  0
 36 37  2  0
 37 38  1  0
 38 42  1  0
 39 43  1  0
 39 38  2  0
 40 35  1  0
 41 36  1  0
 44 47  1  0
 44 46  1  0
 45 44  1  0
M  END
>  <minimizedAffinity>  (45) 
-9.24212742

$$$$

     RDKit          3D

 40 43  0  0  0  0  0  0  0  0999 V2000
  -19.6120  -28.1620   54.3690 N   0  0  0  0  0  0  0  0  0  0  0  0
  -20.0130  -26.9060   55.0830 C   0  0  0  0  0  0  0  0  0  0  0  0
  -19.0840  -25.8350   55.5740 C   0  0  0  0  0  0  0  0  0  0  0  0
  -17.5910  -25.8330   55.4360 O   0  0  0  0  0  0  0  0  0  0  0  0
  -19.9100  -24.7670   56.2280 N   0  0  0  0  0  0  0  0  0  0  0  0
  -21.3510  -25.1780   56.1410 C   0  0  0  0  0  0  0  0  0  0  0  0
  -22.6120  -24.5190   56.6140 C   0  0  0  0  0  0  0  0  0  0  0  0
  -23.9380  -25.1810   56.3800 C   0  0  0  0  0  0  0  0  0  0  0  0
  -24.0010  -26.5030   55.6730 C   0  0  0  0  0  0  0  0  0  0  0  0
  -22.7390  -27.1620   55.2000 C   0  0  0  0  0  0  0  0  0  0  0  0
  -21.4140  -26.4990   55.4340 C   0  0  0  0  0  0  0  0  0  0  0  0
  -19.5680  -23.9420   56.6410 H   0  0  0  0  0  0  0  0  0  0  0  0
  -22.5680  -23.6100   57.1000 H   0  0  0  0  0  0  0  0  0  0  0  0
  -24.8060  -24.7280   56.7060 H   0  0  0  0  0  0  0  0  0  0  0  0
  -22.7830  -28.0710   54.7140 H   0  0  0  0  0  0  0  0  0  0  0  0
  -25.3260  -27.1650   55.4400 C   0  0  0  0  0  0  0  0  0  0  0  0
  -25.5380  -28.5810   54.9910 C   0  0  0  0  0  0  0  0  0  0  0  0
  -27.0150  -28.8200   54.8880 N   0  0  0  0  0  0  0  0  0  0  0  0
  -27.7170  -27.5510   55.2730 C   0  0  0  0  0  0  0  0  0  0  0  0
  -26.6730  -26.5290   55.6140 O   0  0  0  0  0  0  0  0  0  0  0  0
  -24.7970  -29.2700   54.7890 H   0  0  0  0  0  0  0  0  0  0  0  0
  -28.7380  -27.4070   55.2980 H   0  0  0  0  0  0  0  0  0  0  0  0
  -18.1650  -28.4340   54.0860 N   0  0  0  0  0  0  0  0  0  0  0  0
  -17.7270  -28.0130   53.3120 H   0  0  0  0  0  0  0  0  0  0  0  0
  -15.8240  -31.1780   56.7780 C   0  0  0  0  0  0  0  0  0  0  0  0
  -15.2110  -29.8960   56.2980 C   0  0  0  0  0  0  0  0  0  0  0  0
  -15.9920  -28.9810   55.4000 C   0  0  0  0  0  0  0  0  0  0  0  0
  -17.3840  -29.3490   54.9840 C   0  0  0  0  0  0  0  0  0  0  0  0
  -17.9980  -30.6310   55.4640 C   0  0  0  0  0  0  0  0  0  0  0  0
  -17.2170  -31.5460   56.3610 C   0  0  0  0  0  0  0  0  0  0  0  0
  -14.2520  -29.6420   56.5850 H   0  0  0  0  0  0  0  0  0  0  0  0
  -15.5700  -28.0990   55.0700 H   0  0  0  0  0  0  0  0  0  0  0  0
  -18.9560  -30.8840   55.1770 H   0  0  0  0  0  0  0  0  0  0  0  0
  -17.6380  -32.4280   56.6920 H   0  0  0  0  0  0  0  0  0  0  0  0
  -15.0440  -32.0920   57.6750 S   0  0  1  0  0  0  0  0  0  0  0  0
  -16.3190  -32.7530   58.1090 O   0  0  0  0  0  0  0  0  0  0  0  0
  -13.7690  -31.4320   57.2420 O   0  0  0  0  0  0  0  0  0  0  0  0
  -14.2650  -33.0070   58.5730 N   0  0  0  0  0  0  0  0  0  0  0  0
  -14.7510  -33.7080   59.1340 H   0  0  0  0  0  0  0  0  0  0  0  0
  -13.2490  -32.9290   58.6230 H   0  0  0  0  0  0  0  0  0  0  0  0
  1  2  2  0
  2 11  1  0
  2  3  1  0
  3  5  1  0
  4  3  2  0
  5 12  1  0
  6  5  1  0
  6  7  1  0
  7 13  1  0
  8  7  2  0
  8 14  1  0
  9  8  1  0
 10 11  1  0
 10  9  2  0
 11  6  2  0
 15 10  1  0
 16 20  1  0
 16  9  1  0
 17 16  2  0
 18 17  1  0
 18 19  2  0
 19 22  1  0
 19 20  1  0
 21 17  1  0
 23  1  1  0
 23 28  1  0
 24 23  1  0
 25 35  1  0
 26 31  1  0
 26 25  2  0
 27 26  1  0
 28 27  2  0
 28 29  1  0
 29 30  2  0
 30 34  1  0
 30 25  1  0
 32 27  1  0
 33 29  1  0
 35 36  2  0
 35 38  1  0
 37 35  2  0
 38 40  1  0
 38 39  1  0
M  END
>  <minimizedAffinity>  (46) 
-8.84170151

$$$$

     RDKit          3D

 45 48  0  0  0  0  0  0  0  0999 V2000
  -20.2900  -26.4970   55.7910 C   0  0  0  0  0  0  0  0  0  0  0  0
  -20.0030  -27.9640   55.6640 C   0  0  0  0  0  0  0  0  0  0  0  0
  -18.5210  -28.1350   55.5200 C   0  0  0  0  0  0  0  0  0  0  0  0
  -17.8900  -26.7750   55.5570 C   0  0  0  0  0  0  0  0  0  0  0  0
  -18.9840  -25.7620   55.7250 S   0  0  0  0  0  0  0  0  0  0  0  0
  -20.7040  -28.7210   55.6750 H   0  0  0  0  0  0  0  0  0  0  0  0
  -25.8370  -27.3770   55.4870 C   0  0  0  0  0  0  0  0  0  0  0  0
  -25.4890  -25.9750   55.8890 C   0  0  0  0  0  0  0  0  0  0  0  0
  -24.0520  -25.5670   56.0190 C   0  0  0  0  0  0  0  0  0  0  0  0
  -23.4080  -24.2650   56.3950 N   0  0  0  0  0  0  0  0  0  0  0  0
  -21.9200  -24.4550   56.3550 C   0  0  0  0  0  0  0  0  0  0  0  0
  -21.6450  -25.8740   55.9550 N   0  0  0  0  0  0  0  0  0  0  0  0
  -22.9620  -26.5610   55.7470 C   0  0  0  0  0  0  0  0  0  0  0  0
  -23.3100  -27.9640   55.3440 C   0  0  0  0  0  0  0  0  0  0  0  0
  -24.7480  -28.3710   55.2150 C   0  0  0  0  0  0  0  0  0  0  0  0
  -26.2390  -25.2900   56.0760 H   0  0  0  0  0  0  0  0  0  0  0  0
  -21.2110  -23.7360   56.5670 H   0  0  0  0  0  0  0  0  0  0  0  0
  -22.5610  -28.6470   55.1570 H   0  0  0  0  0  0  0  0  0  0  0  0
  -27.2750  -27.7860   55.3570 O   0  0  0  0  0  0  0  0  0  0  0  0
  -28.3420  -27.0070   56.0680 C   0  0  0  0  0  0  0  0  0  0  0  0
  -28.0780  -26.1610   56.6670 H   0  0  0  0  0  0  0  0  0  0  0  0
  -29.3680  -27.2990   55.9750 H   0  0  0  0  0  0  0  0  0  0  0  0
  -29.1040  -26.4520   56.5750 H   0  0  0  0  0  0  0  0  0  0  0  0
  -25.0960  -29.7740   54.8120 O   0  0  0  0  0  0  0  0  0  0  0  0
  -25.5000  -30.0700   53.3990 C   0  0  0  0  0  0  0  0  0  0  0  0
  -25.7490  -31.0710   53.1110 H   0  0  0  0  0  0  0  0  0  0  0  0
  -25.5410  -29.2810   52.6770 H   0  0  0  0  0  0  0  0  0  0  0  0
  -25.7890  -30.2810   52.3900 H   0  0  0  0  0  0  0  0  0  0  0  0
  -16.4240  -26.4790   55.4460 C   0  0  0  0  0  0  0  0  0  0  0  0
  -15.4220  -27.5840   55.6030 N   0  0  0  0  0  0  0  0  0  0  0  0
  -15.9600  -25.0780   55.1790 O   0  0  0  0  0  0  0  0  0  0  0  0
  -15.7260  -28.5040   55.7780 H   0  0  0  0  0  0  0  0  0  0  0  0
  -14.4590  -27.3900   55.5300 H   0  0  0  0  0  0  0  0  0  0  0  0
  -17.7950  -29.4390   55.3650 O   0  0  0  0  0  0  0  0  0  0  0  0
  -18.3070  -30.6690   56.0530 C   0  0  0  0  0  0  0  0  0  0  0  0
  -19.3440  -30.7500   56.3030 H   0  0  0  0  0  0  0  0  0  0  0  0
  -18.6730  -31.5470   56.5440 H   0  0  0  0  0  0  0  0  0  0  0  0
  -17.3660  -31.7870   56.3920 C   0  0  0  0  0  0  0  0  0  0  0  0
  -16.6080  -31.9420   57.6780 C   0  0  0  0  0  0  0  0  0  0  0  0
  -15.7910  -33.1960   57.5850 C   0  0  0  0  0  0  0  0  0  0  0  0
  -16.0430  -33.8160   56.2440 C   0  0  0  0  0  0  0  0  0  0  0  0
  -17.0160  -32.9450   55.5060 S   0  0  0  0  0  0  0  0  0  0  0  0
  -16.6440  -31.2990   58.4840 H   0  0  0  0  0  0  0  0  0  0  0  0
  -15.1650  -33.5680   58.3180 H   0  0  0  0  0  0  0  0  0  0  0  0
  -15.6210  -34.6890   55.8900 H   0  0  0  0  0  0  0  0  0  0  0  0
  1 12  1  0
  2  6  1  0
  2  1  2  0
  3  4  2  0
  3  2  1  0
  4  5  1  0
  5  1  1  0
  7  8  1  0
  8  9  2  0
  8 16  1  0
  9 10  1  0
 11 10  2  0
 11 17  1  0
 12 11  1  0
 13 12  1  0
 13  9  1  0
 14 13  2  0
 15 14  1  0
 15  7  2  0
 18 14  1  0
 19  7  1  0
 19 20  1  0
 20 23  1  0
 20 21  1  0
 22 20  1  0
 24 15  1  0
 25 24  1  0
 26 25  1  0
 27 25  1  0
 28 25  1  0
 29  4  1  0
 29 30  1  0
 30 32  1  0
 31 29  2  0
 33 30  1  0
 34  3  1  0
 34 35  1  0
 35 36  1  0
 35 38  1  0
 35 37  1  0
 38 39  2  0
 39 43  1  0
 40 39  1  0
 40 44  1  0
 41 40  2  0
 42 41  1  0
 42 38  1  0
 45 41  1  0
M  END
>  <minimizedAffinity>  (47) 
-8.38492012

$$$$

     RDKit          3D

 33 33  0  0  0  0  0  0  0  0999 V2000
  -20.6210  -27.1790   55.1630 C   0  0  0  0  0  0  0  0  0  0  0  0
  -19.4220  -26.5400   55.7990 C   0  0  0  0  0  0  0  0  0  0  0  0
  -19.8760  -25.2920   56.4960 N   0  0  0  0  0  0  0  0  0  0  0  0
  -21.3570  -25.1600   56.2910 C   0  0  0  0  0  3  0  0  0  0  0  0
  -21.8160  -26.3260   55.4670 N   0  0  0  0  0  0  0  0  0  0  0  0
  -23.2960  -26.1940   55.2620 C   0  0  0  0  0  3  0  0  0  0  0  0
  -23.7520  -24.9460   55.9590 C   0  0  0  0  0  2  0  0  0  0  0  0
  -22.5530  -24.3070   56.5950 S   0  0  0  0  0 15  0  0  0  0  0  0
  -23.9180  -26.8710   54.7150 H   0  0  0  0  0  0  0  0  0  0  0  0
  -24.3390  -25.9600   55.2070 H   0  0  0  0  0  0  0  0  0  0  0  0
  -24.7550  -24.5770   55.9960 H   0  0  0  0  0  0  0  0  0  0  0  0
  -23.9150  -24.0380   56.4990 H   0  0  0  0  0  0  0  0  0  0  0  0
  -20.6300  -32.2550   51.9650 F   0  0  0  0  0  0  0  0  0  0  0  0
  -20.6280  -30.9860   52.7640 C   0  0  0  0  0  0  0  0  0  0  0  0
  -21.1160  -30.9930   54.1820 C   0  0  0  0  0  0  0  0  0  0  0  0
  -21.1140  -29.7230   54.9820 C   0  0  0  0  0  0  0  0  0  0  0  0
  -20.6230  -28.4480   54.3640 C   0  0  0  0  0  0  0  0  0  0  0  0
  -20.1340  -28.4420   52.9450 C   0  0  0  0  0  0  0  0  0  0  0  0
  -20.1370  -29.7120   52.1450 C   0  0  0  0  0  0  0  0  0  0  0  0
  -21.4540  -31.8690   54.6080 H   0  0  0  0  0  0  0  0  0  0  0  0
  -21.4500  -29.7270   55.9570 H   0  0  0  0  0  0  0  0  0  0  0  0
  -19.7960  -27.5640   52.5190 H   0  0  0  0  0  0  0  0  0  0  0  0
  -19.8000  -29.7070   51.1700 H   0  0  0  0  0  0  0  0  0  0  0  0
  -18.0140  -27.0580   55.7470 C   0  0  0  0  0  0  0  0  0  0  0  0
  -16.8610  -26.1060   55.8630 C   0  0  0  0  0  0  0  0  0  0  0  0
  -15.4540  -26.6230   55.8110 C   0  0  0  0  0  0  0  0  0  0  0  0
  -15.2000  -28.0920   55.6440 N   0  0  0  0  0  0  0  0  0  0  0  0
  -16.3540  -29.0440   55.5280 C   0  0  0  0  0  0  0  0  0  0  0  0
  -17.7620  -28.5260   55.5790 C   0  0  0  0  0  0  0  0  0  0  0  0
  -17.0350  -25.0960   55.9780 H   0  0  0  0  0  0  0  0  0  0  0  0
  -14.6600  -25.9680   55.8910 H   0  0  0  0  0  0  0  0  0  0  0  0
  -16.1790  -30.0540   55.4120 H   0  0  0  0  0  0  0  0  0  0  0  0
  -18.5540  -29.1820   55.5000 H   0  0  0  0  0  0  0  0  0  0  0  0
  1  5  1  0
  1  2  2  0
  2  3  1  0
  4  3  2  0
  5  4  1  0
  6  5  1  0
  7 11  1  0
  7 12  1  0
  9  6  1  0
 10  6  1  0
 13 14  1  0
 14 15  1  0
 15 20  1  0
 15 16  2  0
 16 21  1  0
 17 16  1  0
 17  1  1  0
 18 17  2  0
 19 14  2  0
 19 18  1  0
 22 18  1  0
 23 19  1  0
 24  2  1  0
 24 25  1  0
 25 30  1  0
 26 25  2  0
 26 31  1  0
 27 26  1  0
 28 29  1  0
 28 27  2  0
 29 24  2  0
 32 28  1  0
 33 29  1  0
M  END
>  <minimizedAffinity>  (48) 
-7.58755398

$$$$

     RDKit          3D

 51 54  0  0  0  0  0  0  0  0999 V2000
  -17.7460  -29.9440   55.3160 C   0  0  0  0  0  0  0  0  0  0  0  0
  -19.1710  -29.6220   55.6530 C   0  0  0  0  0  0  0  0  0  0  0  0
  -19.3120  -28.1300   55.6890 C   0  0  0  0  0  0  0  0  0  0  0  0
  -17.9750  -27.5290   55.3740 C   0  0  0  0  0  0  0  0  0  0  0  0
  -17.0060  -28.6510   55.1430 S   0  0  0  0  0  0  0  0  0  0  0  0
  -19.9220  -30.3070   55.8300 H   0  0  0  0  0  0  0  0  0  0  0  0
  -14.3450  -33.7700   57.6460 C   0  0  0  0  0  0  0  0  0  0  0  0
  -14.9550  -34.2380   56.3590 C   0  0  0  0  0  0  0  0  0  0  0  0
  -15.8890  -33.3410   55.6030 C   0  0  0  0  0  0  0  0  0  0  0  0
  -16.6380  -33.5280   54.3160 N   0  0  0  0  0  0  0  0  0  0  0  0
  -17.4250  -32.2780   54.0520 C   0  0  0  0  0  0  0  0  0  0  0  0
  -17.1620  -31.3190   55.1750 N   0  0  0  0  0  0  0  0  0  0  0  0
  -16.2130  -31.9770   56.1330 C   0  0  0  0  0  0  0  0  0  0  0  0
  -15.6020  -31.5090   57.4210 C   0  0  0  0  0  0  0  0  0  0  0  0
  -14.6680  -32.4060   58.1780 C   0  0  0  0  0  0  0  0  0  0  0  0
  -14.7320  -35.1780   55.9930 H   0  0  0  0  0  0  0  0  0  0  0  0
  -18.0380  -32.1070   53.2400 H   0  0  0  0  0  0  0  0  0  0  0  0
  -15.8250  -30.5700   57.7860 H   0  0  0  0  0  0  0  0  0  0  0  0
  -13.4090  -34.6670   58.4030 O   0  0  0  0  0  0  0  0  0  0  0  0
  -12.3510  -35.4370   57.6700 C   0  0  0  0  0  0  0  0  0  0  0  0
  -12.2630  -35.3460   56.6070 H   0  0  0  0  0  0  0  0  0  0  0  0
  -11.6850  -36.0770   58.2100 H   0  0  0  0  0  0  0  0  0  0  0  0
  -11.5960  -35.9860   57.1470 H   0  0  0  0  0  0  0  0  0  0  0  0
  -14.0570  -31.9370   59.4650 O   0  0  0  0  0  0  0  0  0  0  0  0
  -12.6110  -31.5440   59.5090 C   0  0  0  0  0  0  0  0  0  0  0  0
  -12.1740  -31.2100   60.4280 H   0  0  0  0  0  0  0  0  0  0  0  0
  -12.0140  -31.5970   58.6220 H   0  0  0  0  0  0  0  0  0  0  0  0
  -11.5780  -31.2630   59.5400 H   0  0  0  0  0  0  0  0  0  0  0  0
  -17.6600  -26.0640   55.3020 C   0  0  0  0  0  0  0  0  0  0  0  0
  -18.7720  -25.0570   55.3060 N   0  0  0  0  0  0  0  0  0  0  0  0
  -16.2340  -25.6060   55.2270 O   0  0  0  0  0  0  0  0  0  0  0  0
  -19.7090  -25.3580   55.3560 H   0  0  0  0  0  0  0  0  0  0  0  0
  -18.5660  -24.0950   55.2590 H   0  0  0  0  0  0  0  0  0  0  0  0
  -20.5710  -27.3700   55.9890 O   0  0  0  0  0  0  0  0  0  0  0  0
  -21.5750  -27.1230   54.9020 C   0  0  0  0  0  0  0  0  0  0  0  0
  -21.2480  -26.8150   53.9310 H   0  0  0  0  0  0  0  0  0  0  0  0
  -22.2910  -26.9470   54.1260 H   0  0  0  0  0  0  0  0  0  0  0  0
  -23.0380  -27.3090   55.1750 C   0  0  0  0  0  0  0  0  0  0  0  0
  -23.6420  -28.6810   55.1270 C   0  0  0  0  0  0  0  0  0  0  0  0
  -25.1060  -28.8660   55.4000 C   0  0  0  0  0  0  0  0  0  0  0  0
  -25.9640  -27.6790   55.7220 C   0  0  0  0  0  0  0  0  0  0  0  0
  -25.3610  -26.3070   55.7700 C   0  0  0  0  0  0  0  0  0  0  0  0
  -23.8970  -26.1220   55.4970 C   0  0  0  0  0  0  0  0  0  0  0  0
  -23.0510  -29.4970   54.9050 H   0  0  0  0  0  0  0  0  0  0  0  0
  -25.5210  -29.8100   55.3670 H   0  0  0  0  0  0  0  0  0  0  0  0
  -26.9710  -27.8070   55.9100 H   0  0  0  0  0  0  0  0  0  0  0  0
  -25.9510  -25.4910   55.9920 H   0  0  0  0  0  0  0  0  0  0  0  0
  -23.2930  -24.7500   55.5450 C   0  0  0  0  0  0  0  0  0  0  0  0
  -22.6880  -23.3770   55.5940 F   0  0  0  0  0  0  0  0  0  0  0  0
  -23.7310  -24.5070   54.1320 F   0  0  0  0  0  0  0  0  0  0  0  0
  -22.8540  -24.9930   56.9590 F   0  0  0  0  0  0  0  0  0  0  0  0
  1  2  2  0
  2  3  1  0
  2  6  1  0
  3 34  1  0
  4  3  2  0
  5  1  1  0
  5  4  1  0
  7 15  1  0
  7 19  1  0
  8  7  2  0
  9 13  2  0
  9  8  1  0
 10  9  1  0
 11 10  2  0
 11 12  1  0
 12  1  1  0
 12 13  1  0
 13 14  1  0
 14 18  1  0
 14 15  2  0
 15 24  1  0
 16  8  1  0
 17 11  1  0
 20 22  1  0
 20 19  1  0
 21 20  1  0
 23 20  1  0
 24 25  1  0
 25 28  1  0
 25 26  1  0
 27 25  1  0
 29 30  1  0
 29  4  1  0
 30 32  1  0
 31 29  2  0
 33 30  1  0
 35 38  1  0
 35 34  1  0
 36 35  1  0
 37 35  1  0
 38 43  1  0
 39 38  2  0
 39 40  1  0
 40 41  2  0
 41 42  1  0
 41 46  1  0
 42 47  1  0
 43 48  1  0
 43 42  2  0
 44 39  1  0
 45 40  1  0
 48 49  1  0
 48 51  1  0
 50 48  1  0
M  END
>  <minimizedAffinity>  (49) 
-9.30606461

$$$$

     RDKit          3D

 48 49  0  0  0  0  0  0  0  0999 V2000
  -18.2800  -29.6700   55.0340 C   0  0  0  0  0  0  0  0  0  0  0  0
  -17.1640  -28.6910   54.8270 C   0  0  0  0  0  0  0  0  0  0  0  0
  -15.8080  -28.9660   55.4070 C   0  0  0  0  0  0  0  0  0  0  0  0
  -15.5690  -30.2200   56.1940 N   0  0  0  0  0  0  0  0  0  0  0  0
  -16.6860  -31.2000   56.4010 C   0  0  0  0  0  0  0  0  0  0  0  0
  -16.4480  -32.4540   57.1880 N   0  0  0  0  0  0  0  0  0  0  0  0
  -18.0420  -30.9240   55.8210 N   0  0  0  0  0  0  0  0  0  0  0  0
  -17.3270  -27.8280   54.2850 H   0  0  0  0  0  0  0  0  0  0  0  0
  -15.0380  -28.2920   55.2640 H   0  0  0  0  0  0  0  0  0  0  0  0
  -17.1810  -33.0960   57.3240 H   0  0  0  0  0  0  0  0  0  0  0  0
  -22.8170  -26.3540   55.2870 C   0  0  0  0  0  3  0  0  0  0  0  0
  -21.5800  -26.2600   56.1310 C   0  0  0  0  0  0  0  0  0  0  0  0
  -20.4580  -27.2340   55.9280 C   0  0  0  0  0  0  0  0  0  0  0  0
  -20.5720  -28.3020   54.8800 C   0  0  0  0  0  0  0  0  0  0  0  0
  -19.6360  -29.3940   54.4540 C   0  0  0  0  0  0  0  0  0  0  0  0
  -20.2940  -30.1630   53.3470 C   0  0  0  0  0  0  0  0  0  0  0  0
  -21.6360  -29.5460   53.0880 N   0  0  0  0  0  0  0  0  0  0  0  0
  -21.8080  -28.3950   54.0360 N   0  0  0  0  0  0  0  0  0  0  0  0
  -22.9300  -27.4210   54.2390 N   0  0  0  0  0  0  0  0  0  0  0  0
  -21.5020  -25.5260   56.8520 H   0  0  0  0  0  0  0  0  0  0  0  0
  -19.6070  -27.1700   56.5090 H   0  0  0  0  0  0  0  0  0  0  0  0
  -19.8940  -30.9740   52.8500 H   0  0  0  0  0  0  0  0  0  0  0  0
  -23.9390  -25.3790   55.4900 O   0  0  0  0  0 15  0  0  0  0  0  0
  -25.1130  -25.7560   56.3440 C   0  0  0  0  0  3  0  0  0  0  0  0
  -25.0980  -25.5540   57.3940 H   0  0  0  0  0  0  0  0  0  0  0  0
  -24.2600  -25.2850   56.7850 H   0  0  0  0  0  0  0  0  0  0  0  0
  -26.3100  -26.4160   55.7240 C   0  0  0  0  0  0  0  0  0  0  0  0
  -27.1480  -26.6840   56.3330 H   0  0  0  0  0  0  0  0  0  0  0  0
  -26.3250  -26.6180   54.6730 H   0  0  0  0  0  0  0  0  0  0  0  0
  -27.1630  -26.8870   55.2820 H   0  0  0  0  0  0  0  0  0  0  0  0
  -15.0920  -32.7300   57.7680 C   0  0  0  0  0  0  0  0  0  0  0  0
  -14.3890  -34.0160   57.4510 C   0  0  0  0  0  0  0  0  0  0  0  0
  -13.0330  -34.2910   58.0310 C   0  0  0  0  0  0  0  0  0  0  0  0
  -12.3810  -33.2800   58.9270 C   0  0  0  0  0  0  0  0  0  0  0  0
  -13.0850  -31.9940   59.2440 C   0  0  0  0  0  0  0  0  0  0  0  0
  -14.4400  -31.7190   58.6640 C   0  0  0  0  0  0  0  0  0  0  0  0
  -14.8360  -34.7110   56.8350 H   0  0  0  0  0  0  0  0  0  0  0  0
  -11.4480  -33.4700   59.3270 H   0  0  0  0  0  0  0  0  0  0  0  0
  -14.9250  -30.8340   58.8820 H   0  0  0  0  0  0  0  0  0  0  0  0
  -12.4330  -30.9840   60.1410 C   0  0  0  0  0  0  0  0  0  0  0  0
  -11.7810  -29.9730   61.0370 F   0  0  0  0  0  0  0  0  0  0  0  0
  -11.0870  -31.3810   59.6110 F   0  0  0  0  0  0  0  0  0  0  0  0
  -13.7790  -30.5860   60.6710 F   0  0  0  0  0  0  0  0  0  0  0  0
  -12.3290  -35.5770   57.7140 O   0  0  0  0  0  0  0  0  0  0  0  0
  -12.5890  -36.2730   56.4110 C   0  0  0  0  0  0  0  0  0  0  0  0
  -13.2750  -35.8520   55.7070 H   0  0  0  0  0  0  0  0  0  0  0  0
  -12.0860  -37.1910   56.1850 H   0  0  0  0  0  0  0  0  0  0  0  0
  -12.7730  -36.7700   55.4810 H   0  0  0  0  0  0  0  0  0  0  0  0
  1  7  2  0
  2  1  1  0
  2  3  2  0
  3  4  1  0
  4  5  2  0
  5  6  1  0
  6 10  1  0
  6 31  1  0
  7  5  1  0
  8  2  1  0
  9  3  1  0
 11 12  1  0
 12 20  1  0
 13 12  2  0
 13 21  1  0
 14 13  1  0
 15 14  2  0
 15  1  1  0
 16 15  1  0
 17 16  2  0
 17 18  1  0
 18 19  1  0
 18 14  1  0
 19 11  2  0
 22 16  1  0
 24 26  1  0
 24 25  1  0
 27 28  1  0
 27 24  1  0
 29 27  1  0
 30 27  1  0
 31 36  1  0
 32 31  2  0
 32 33  1  0
 33 34  2  0
 34 35  1  0
 34 38  1  0
 35 40  1  0
 36 39  1  0
 36 35  2  0
 37 32  1  0
 40 43  1  0
 40 41  1  0
 42 40  1  0
 44 33  1  0
 45 44  1  0
 46 45  1  0
 47 45  1  0
 48 45  1  0
M  END
>  <minimizedAffinity>  (50) 
-9.53544807

$$$$

     RDKit          3D

 67 64  0  0  1  0  0  0  0  0999 V2000
  -20.0770  -26.8000   55.5310 C   0  0  0  0  0  0  0  0  0  0  0  0
  -21.0770  -27.5680   54.7180 C   0  0  0  0  0  0  0  0  0  0  0  0
  -22.5020  -27.1060   54.6500 C   0  0  0  0  0  0  0  0  0  0  0  0
  -22.9280  -25.8760   55.3970 C   0  0  0  0  0  0  0  0  0  0  0  0
  -21.9280  -25.1080   56.2100 C   0  0  0  0  0  0  0  0  0  0  0  0
  -20.5020  -25.5710   56.2780 C   0  0  0  0  0  0  0  0  0  0  0  0
  -20.7840  -28.4140   54.2040 H   0  0  0  0  0  0  0  0  0  0  0  0
  -23.1900  -27.6340   54.0910 H   0  0  0  0  0  0  0  0  0  0  0  0
  -19.8150  -25.0430   56.8370 H   0  0  0  0  0  0  0  0  0  0  0  0
  -24.3530  -25.4140   55.3290 N   0  0  0  0  0  0  0  0  0  0  0  0
  -25.4710  -26.4050   55.4760 C   0  0  0  0  0  0  0  0  0  0  0  0
  -25.1630  -27.8570   55.6890 N   0  0  0  0  0  0  0  0  0  0  0  0
  -26.2790  -28.8470   55.8360 C   0  0  0  0  0  3  0  0  0  0  0  0
  -27.7040  -28.3850   55.7690 C   0  0  0  0  0  0  0  0  0  0  0  0
  -29.0050  -29.1250   55.8780 C   0  0  0  0  0  0  0  0  0  0  0  0
  -30.1180  -28.1290   55.7320 C   0  0  0  0  0  0  0  0  0  0  0  0
  -29.5050  -26.7750   55.5330 N   0  0  0  0  0  0  0  0  0  0  0  0
  -28.0130  -26.9340   55.5550 C   0  0  0  0  0  0  0  0  0  0  0  0
  -26.8960  -25.9430   55.4090 N   0  0  0  0  0  2  0  0  0  0  0  0
  -24.5570  -24.4610   55.1890 H   0  0  0  0  0  0  0  0  0  0  0  0
  -29.1160  -30.1400   56.0280 H   0  0  0  0  0  0  0  0  0  0  0  0
  -31.1280  -28.3390   55.7640 H   0  0  0  0  0  0  0  0  0  0  0  0
  -29.9950  -25.9300   55.4080 H   0  0  0  0  0  0  0  0  0  0  0  0
  -25.9710  -30.3000   56.0500 N   0  0  0  0  0  0  0  0  0  0  0  0
  -25.5610  -30.5980   56.8930 H   0  0  0  0  0  0  0  0  0  0  0  0
  -26.2880  -31.3000   54.9760 C   0  0  0  0  0  0  0  0  0  0  0  0
  -27.4560  -32.2260   55.1370 C   0  0  0  0  0  0  0  0  0  0  0  0
  -27.7730  -33.2250   54.0630 C   0  0  0  0  0  0  0  0  0  0  0  0
  -26.9220  -33.2980   52.8310 C   0  0  0  0  0  0  0  0  0  0  0  0
  -25.7540  -32.3700   52.6710 C   0  0  0  0  0  0  0  0  0  0  0  0
  -25.4370  -31.3710   53.7440 C   0  0  0  0  0  0  0  0  0  0  0  0
  -28.0420  -32.1770   55.9850 H   0  0  0  0  0  0  0  0  0  0  0  0
  -28.5770  -33.8630   54.1730 H   0  0  0  0  0  0  0  0  0  0  0  0
  -27.1400  -33.9840   52.0920 H   0  0  0  0  0  0  0  0  0  0  0  0
  -25.1680  -32.4200   51.8220 H   0  0  0  0  0  0  0  0  0  0  0  0
  -24.2680  -30.4440   53.5840 C   0  0  0  0  0  0  0  0  0  0  0  0
  -22.9440  -30.7960   54.1920 N   0  0  0  0  0  0  0  0  0  0  0  0
  -24.4260  -29.1650   52.8160 O   0  0  0  0  0  0  0  0  0  0  0  0
  -22.1760  -30.1870   54.0870 H   0  0  0  0  0  0  0  0  0  0  0  0
  -22.8400  -31.6360   54.6960 H   0  0  0  0  0  0  0  0  0  0  0  0
  -16.9020  -29.1800   55.5030 N   0  0  0  0  0 15  0  0  0  0  0  0
  -15.8010  -28.1880   55.7330 C   0  0  0  0  0  2  0  0  0  0  0  0
  -16.1260  -26.7320   55.8950 C   0  0  0  0  0  2  0  0  0  0  0  0
  -17.5510  -26.2700   55.8280 C   0  0  0  0  0  1  0  0  0  0  0  0
  -18.6510  -27.2630   55.5980 C   0  0  0  0  0  2  0  0  0  0  0  0
  -18.3270  -28.7180   55.4360 C   0  0  0  0  0  3  0  0  0  0  0  0
  -14.7840  -28.5170   55.7810 H   0  0  0  0  0  0  0  0  0  0  0  0
  -15.0160  -27.4790   55.8960 H   0  0  0  0  0  0  0  0  0  0  0  0
  -15.3410  -26.0230   56.0580 H   0  0  0  0  0  0  0  0  0  0  0  0
  -16.3580  -25.6940   56.0100 H   0  0  0  0  0  0  0  0  0  0  0  0
  -17.7750  -25.2680   55.9390 H   0  0  0  0  0  0  0  0  0  0  0  0
  -19.1120  -29.4270   55.2730 H   0  0  0  0  0  0  0  0  0  0  0  0
  -18.0950  -29.7560   55.3210 H   0  0  0  0  0  0  0  0  0  0  0  0
  -16.5770  -30.6360   55.3410 C   0  0  0  0  0  2  0  0  0  0  0  0
  -15.9650  -30.9600   54.5250 H   0  0  0  0  0  0  0  0  0  0  0  0
  -16.1970  -29.9210   54.6410 H   0  0  0  0  0  0  0  0  0  0  0  0
  -17.1090  -31.6370   56.3230 C   0  0  0  0  0  3  0  0  0  0  0  0
  -18.1150  -31.9920   56.2340 H   0  0  0  0  0  0  0  0  0  0  0  0
  -17.7350  -31.2770   55.5330 H   0  0  0  0  0  0  0  0  0  0  0  0
  -16.2310  -32.1410   57.4300 C   0  0  0  0  0  0  0  0  0  0  0  0
  -16.6110  -32.8560   58.1310 H   0  0  0  0  0  0  0  0  0  0  0  0
  -15.2260  -31.7870   57.5190 H   0  0  0  0  0  0  0  0  0  0  0  0
  -15.6050  -32.5010   58.2200 H   0  0  0  0  0  0  0  0  0  0  0  0
  -22.3540  -23.8800   56.9560 C   0  0  0  0  0  0  0  0  0  0  0  0
  -23.3710  -23.5490   56.9080 H   0  0  0  0  0  0  0  0  0  0  0  0
  -21.6410  -23.3320   57.5370 H   0  0  0  0  0  0  0  0  0  0  0  0
  -22.6580  -23.0030   57.4880 H   0  0  0  0  0  0  0  0  0  0  0  0
  1 45  1  0
  1  6  1  0
  2  1  2  0
  3  2  1  0
  3  4  2  0
  4  5  1  0
  5  6  2  0
  5 64  1  0
  6  9  1  0
  7  2  1  0
  8  3  1  0
 10  4  1  0
 10 11  1  0
 11 12  2  0
 12 13  1  0
 13 24  1  0
 14 13  1  0
 14 15  1  0
 15 21  1  0
 16 22  1  0
 16 15  2  0
 17 18  1  0
 17 16  1  0
 18 14  2  0
 19 11  1  0
 19 18  1  0
 20 10  1  0
 23 17  1  0
 24 25  1  0
 26 27  1  0
 26 24  1  0
 27 32  1  0
 28 33  1  0
 28 27  2  0
 29 28  1  0
 30 29  2  0
 30 31  1  0
 31 26  2  0
 34 29  1  0
 35 30  1  0
 36 31  1  0
 36 37  1  0
 37 40  1  0
 38 36  2  0
 39 37  1  0
 42 47  1  0
 42 48  1  0
 43 50  1  0
 43 49  1  0
 44 51  1  0
 46 45  1  0
 52 46  1  0
 53 46  1  0
 55 54  1  0
 56 54  1  0
 57 60  1  0
 58 57  1  0
 59 57  1  0
 60 62  1  0
 60 61  1  0
 60 63  1  0
 64 67  1  0
 64 66  1  0
 65 64  1  0
M  END
>  <minimizedAffinity>  (51) 
-10.2877588

$$$$

     RDKit          3D

 46 49  0  0  0  0  0  0  0  0999 V2000
  -19.8970  -28.2110   55.6740 C   0  0  0  0  0  0  0  0  0  0  0  0
  -19.8880  -26.7870   56.1470 C   0  0  0  0  0  0  0  0  0  0  0  0
  -21.1500  -25.9770   56.1130 C   0  0  0  0  0  0  0  0  0  0  0  0
  -21.1400  -24.5540   56.5860 C   0  0  0  0  0  0  0  0  0  0  0  0
  -22.4020  -23.7440   56.5510 C   0  0  0  0  0  0  0  0  0  0  0  0
  -23.6740  -24.3570   56.0440 N   0  0  0  0  0  0  0  0  0  0  0  0
  -23.6830  -25.7800   55.5720 C   0  0  0  0  0  0  0  0  0  0  0  0
  -22.4210  -26.5900   55.6060 C   0  0  0  0  0  0  0  0  0  0  0  0
  -22.4310  -28.0140   55.1330 C   0  0  0  0  0  0  0  0  0  0  0  0
  -21.1690  -28.8240   55.1670 C   0  0  0  0  0  0  0  0  0  0  0  0
  -19.0130  -26.3650   56.4960 H   0  0  0  0  0  0  0  0  0  0  0  0
  -20.2650  -24.1320   56.9340 H   0  0  0  0  0  0  0  0  0  0  0  0
  -22.3960  -22.7640   56.8770 H   0  0  0  0  0  0  0  0  0  0  0  0
  -24.5580  -26.2020   55.2230 H   0  0  0  0  0  0  0  0  0  0  0  0
  -23.3050  -28.4360   54.7840 H   0  0  0  0  0  0  0  0  0  0  0  0
  -16.1110  -30.6410   55.7760 C   0  0  0  0  0  0  0  0  0  0  0  0
  -17.3900  -31.2210   56.3050 C   0  0  0  0  0  0  0  0  0  0  0  0
  -18.6520  -30.4110   56.2710 C   0  0  0  0  0  0  0  0  0  0  0  0
  -18.6350  -29.0210   55.7080 C   0  0  0  0  0  0  0  0  0  0  0  0
  -17.3570  -28.4400   55.1800 C   0  0  0  0  0  0  0  0  0  0  0  0
  -16.0950  -29.2500   55.2140 C   0  0  0  0  0  0  0  0  0  0  0  0
  -17.4010  -32.1780   56.6920 H   0  0  0  0  0  0  0  0  0  0  0  0
  -19.5310  -30.8100   56.6340 H   0  0  0  0  0  0  0  0  0  0  0  0
  -17.3460  -27.4830   54.7930 H   0  0  0  0  0  0  0  0  0  0  0  0
  -15.2160  -28.8510   54.8500 H   0  0  0  0  0  0  0  0  0  0  0  0
  -14.8490  -31.4510   55.8110 S   0  0  2  0  0  0  0  0  0  0  0  0
  -15.6600  -32.7110   55.8700 O   0  0  0  0  0  0  0  0  0  0  0  0
  -14.0390  -30.1900   55.7520 O   0  0  0  0  0  0  0  0  0  0  0  0
  -13.5870  -32.2610   55.8450 N   0  0  0  0  0  0  0  0  0  0  0  0
  -13.6350  -33.2790   55.8910 H   0  0  0  0  0  0  0  0  0  0  0  0
  -12.6810  -31.7940   55.8220 H   0  0  0  0  0  0  0  0  0  0  0  0
  -21.1780  -30.2470   54.6940 O   0  0  0  0  0  0  0  0  0  0  0  0
  -20.7350  -30.5770   53.3000 C   0  0  0  0  0  0  0  0  0  0  0  0
  -21.2990  -30.2260   52.4620 H   0  0  0  0  0  0  0  0  0  0  0  0
  -20.4190  -30.8130   52.3050 H   0  0  0  0  0  0  0  0  0  0  0  0
  -19.5000  -31.4010   53.0800 C   0  0  0  0  0  0  0  0  0  0  0  0
  -18.2790  -30.7750   52.4750 C   0  0  0  0  0  0  0  0  0  0  0  0
  -17.0450  -31.5980   52.2550 C   0  0  0  0  0  0  0  0  0  0  0  0
  -17.0310  -33.0470   52.6410 C   0  0  0  0  0  0  0  0  0  0  0  0
  -18.2530  -33.6730   53.2470 C   0  0  0  0  0  0  0  0  0  0  0  0
  -19.4870  -32.8500   53.4660 C   0  0  0  0  0  0  0  0  0  0  0  0
  -18.2880  -29.7770   52.2090 H   0  0  0  0  0  0  0  0  0  0  0  0
  -16.2040  -31.1670   51.8390 H   0  0  0  0  0  0  0  0  0  0  0  0
  -16.1820  -33.6140   52.4910 H   0  0  0  0  0  0  0  0  0  0  0  0
  -18.2430  -34.6710   53.5130 H   0  0  0  0  0  0  0  0  0  0  0  0
  -20.3270  -33.2810   53.8830 H   0  0  0  0  0  0  0  0  0  0  0  0
  1 19  1  0
  1  2  1  0
  2 11  1  0
  3  2  2  0
  3  4  1  0
  4 12  1  0
  5  4  2  0
  5 13  1  0
  6  5  1  0
  7  8  1  0
  7  6  2  0
  8  3  1  0
  9 10  1  0
  9  8  2  0
 10  1  2  0
 14  7  1  0
 15  9  1  0
 16 26  1  0
 16 17  1  0
 17 22  1  0
 18 17  2  0
 18 23  1  0
 19 18  1  0
 20 21  1  0
 20 19  2  0
 21 16  2  0
 24 20  1  0
 25 21  1  0
 26 29  1  0
 26 27  2  0
 28 26  2  0
 29 30  1  0
 31 29  1  0
 32 10  1  0
 33 32  1  0
 34 33  1  0
 35 33  1  0
 36 33  1  0
 36 41  1  0
 37 36  2  0
 38 37  1  0
 38 39  2  0
 39 40  1  0
 40 41  2  0
 40 45  1  0
 41 46  1  0
 42 37  1  0
 43 38  1  0
 44 39  1  0
M  END
>  <minimizedAffinity>  (52) 
-8.82998657

$$$$

     RDKit          3D

 47 44  0  0  0  0  0  0  0  0999 V2000
  -20.1320  -26.4520   55.6710 C   0  0  0  0  0  2  0  0  0  0  0  0
  -19.3320  -25.1860   55.5760 O   0  0  0  0  0  1  0  0  0  0  0  0
  -19.4340  -27.7780   55.7310 N   0  0  0  0  0  0  0  0  0  0  0  0
  -17.9360  -27.8390   55.6960 C   0  0  0  0  0  0  0  0  0  0  0  0
  -17.0070  -26.6640   55.6030 N   0  0  0  0  0  0  0  0  0  0  0  0
  -15.6000  -27.1840   55.5980 N   0  0  0  0  0  0  0  0  0  0  0  0
  -15.6590  -28.6800   55.6870 C   0  0  0  0  0  0  0  0  0  0  0  0
  -14.5850  -29.7260   55.7210 N   0  0  0  0  0  0  0  0  0  0  0  0
  -14.9540  -31.1770   55.8160 C   0  0  0  0  0  0  0  0  0  0  0  0
  -16.3970  -31.5820   55.8770 C   0  0  0  0  0  0  0  0  0  0  0  0
  -16.7650  -33.0330   55.9720 Br  0  0  0  0  0  0  0  0  0  0  0  0
  -17.4710  -30.5360   55.8430 C   0  0  0  0  0  0  0  0  0  0  0  0
  -17.1020  -29.0850   55.7480 C   0  0  0  0  0  0  0  0  0  0  0  0
  -19.9590  -28.6090   55.7930 H   0  0  0  0  0  0  0  0  0  0  0  0
  -14.7820  -26.6390   55.5440 H   0  0  0  0  0  0  0  0  0  0  0  0
  -18.4640  -30.8140   55.8850 H   0  0  0  0  0  0  0  0  0  0  0  0
  -24.6280  -26.2680   55.7750 N   0  0  0  0  0  2  0  0  0  0  0  0
  -23.9380  -27.5100   55.2930 C   0  0  0  0  0  3  0  0  0  0  0  0
  -22.4400  -27.5720   55.2570 C   0  0  0  0  0  2  0  0  0  0  0  0
  -21.6310  -26.3910   55.7050 C   0  0  0  0  0  1  0  0  0  0  0  0
  -22.3190  -25.1490   56.1880 C   0  0  0  0  0  2  0  0  0  0  0  0
  -23.8180  -25.0870   56.2230 C   0  0  0  0  0  2  0  0  0  0  0  0
  -24.5160  -28.3520   54.9730 H   0  0  0  0  0  0  0  0  0  0  0  0
  -23.4470  -28.3960   54.9480 H   0  0  0  0  0  0  0  0  0  0  0  0
  -21.9490  -28.4580   54.9130 H   0  0  0  0  0  0  0  0  0  0  0  0
  -21.3720  -27.6150   55.2330 H   0  0  0  0  0  0  0  0  0  0  0  0
  -21.0530  -25.5490   56.0250 H   0  0  0  0  0  0  0  0  0  0  0  0
  -21.7420  -24.3060   56.5080 H   0  0  0  0  0  0  0  0  0  0  0  0
  -22.8100  -24.2630   56.5330 H   0  0  0  0  0  0  0  0  0  0  0  0
  -24.3090  -24.2010   56.5680 H   0  0  0  0  0  0  0  0  0  0  0  0
  -24.8870  -25.0440   56.2480 H   0  0  0  0  0  0  0  0  0  0  0  0
  -26.1250  -26.2070   55.8100 C   0  0  0  0  0  0  0  0  0  0  0  0
  -26.7030  -27.0490   55.4910 H   0  0  0  0  0  0  0  0  0  0  0  0
  -26.6160  -25.3210   56.1550 H   0  0  0  0  0  0  0  0  0  0  0  0
  -27.1950  -26.1630   55.8350 H   0  0  0  0  0  0  0  0  0  0  0  0
  -13.8790  -32.2230   55.8500 C   0  0  0  0  0  0  0  0  0  0  0  0
  -13.3800  -32.8270   54.5710 C   0  0  0  0  0  0  0  0  0  0  0  0
  -12.3050  -33.8740   54.6050 C   0  0  0  0  0  0  0  0  0  0  0  0
  -11.7310  -34.3160   55.9180 C   0  0  0  0  0  0  0  0  0  0  0  0
  -12.2300  -33.7120   57.1970 C   0  0  0  0  0  0  0  0  0  0  0  0
  -13.3040  -32.6660   57.1630 C   0  0  0  0  0  0  0  0  0  0  0  0
  -13.7750  -32.5230   53.6680 H   0  0  0  0  0  0  0  0  0  0  0  0
  -11.9620  -34.2890   53.7250 H   0  0  0  0  0  0  0  0  0  0  0  0
  -11.8340  -34.0160   58.1000 H   0  0  0  0  0  0  0  0  0  0  0  0
  -13.6470  -32.2510   58.0430 H   0  0  0  0  0  0  0  0  0  0  0  0
  -10.6560  -35.3620   55.9520 O   0  0  0  0  0  0  0  0  0  0  0  0
  -10.3440  -35.7400   55.1540 H   0  0  0  0  0  0  0  0  0  0  0  0
  1  3  1  0
  2  1  1  0
  3 14  1  0
  4  3  1  0
  4 13  1  0
  5  4  2  0
  6  5  1  0
  6  7  1  0
  7  8  2  0
  7 13  1  0
  8  9  1  0
  9 36  1  0
  9 10  2  0
 10 11  1  0
 12 10  1  0
 12 16  1  0
 13 12  2  0
 15  6  1  0
 17 32  1  0
 18 17  1  0
 20 27  1  0
 21 28  1  0
 21 29  1  0
 22 31  1  0
 22 30  1  0
 23 18  1  0
 24 18  1  0
 25 19  1  0
 26 19  1  0
 32 35  1  0
 32 34  1  0
 33 32  1  0
 36 41  1  0
 37 38  1  0
 37 36  2  0
 38 39  2  0
 39 46  1  0
 39 40  1  0
 40 44  1  0
 41 40  2  0
 41 45  1  0
 42 37  1  0
 43 38  1  0
 47 46  1  0
M  END
>  <minimizedAffinity>  (53) 
-9.24193764

$$$$

     RDKit          3D

 53 50  0  0  1  0  0  0  0  0999 V2000
  -17.4330  -32.0600   55.7030 C   0  0  0  0  0  3  0  0  0  0  0  0
  -18.0790  -33.3810   55.4060 N   0  0  0  0  0  0  0  0  0  0  0  0
  -19.3400  -33.1180   54.6370 C   0  0  0  0  0  0  0  0  0  0  0  0
  -19.4730  -31.6350   54.4590 N   0  0  0  0  0  0  0  0  0  0  0  0
  -18.2950  -30.9800   55.1170 C   0  0  0  0  0  0  0  0  0  0  0  0
  -20.0000  -33.8330   54.2920 H   0  0  0  0  0  0  0  0  0  0  0  0
  -20.5900  -30.9290   53.7470 C   0  0  0  0  0  1  0  0  0  0  0  0
  -20.2790  -29.8880   52.7140 C   0  0  0  0  0  2  0  0  0  0  0  0
  -21.3960  -29.1820   52.0010 C   0  0  0  0  0  2  0  0  0  0  0  0
  -22.8220  -29.5180   52.3230 N   0  0  0  0  0  1  0  0  0  0  0  0
  -23.1320  -30.5600   53.3570 C   0  0  0  0  0  2  0  0  0  0  0  0
  -22.0150  -31.2650   54.0680 C   0  0  0  0  0  2  0  0  0  0  0  0
  -21.3850  -30.4260   53.2390 H   0  0  0  0  0  0  0  0  0  0  0  0
  -19.2630  -29.6470   52.4840 H   0  0  0  0  0  0  0  0  0  0  0  0
  -20.0580  -29.1440   51.9760 H   0  0  0  0  0  0  0  0  0  0  0  0
  -21.1750  -28.4390   51.2640 H   0  0  0  0  0  0  0  0  0  0  0  0
  -22.1910  -28.6790   51.4940 H   0  0  0  0  0  0  0  0  0  0  0  0
  -23.5800  -29.0380   51.8380 H   0  0  0  0  0  0  0  0  0  0  0  0
  -24.1480  -30.8000   53.5860 H   0  0  0  0  0  0  0  0  0  0  0  0
  -23.3520  -31.3040   54.0940 H   0  0  0  0  0  0  0  0  0  0  0  0
  -22.2370  -32.0090   54.8060 H   0  0  0  0  0  0  0  0  0  0  0  0
  -21.2190  -31.7690   54.5760 H   0  0  0  0  0  0  0  0  0  0  0  0
  -12.3040  -31.2370   58.7040 F   0  0  0  0  0  0  0  0  0  0  0  0
  -13.5860  -31.4430   57.9540 C   0  0  0  0  0  0  0  0  0  0  0  0
  -13.6040  -31.3430   56.4570 C   0  0  0  0  0  0  0  0  0  0  0  0
  -14.8860  -31.5490   55.7070 C   0  0  0  0  0  0  0  0  0  0  0  0
  -16.1510  -31.8540   56.4530 C   0  0  0  0  0  0  0  0  0  0  0  0
  -16.1330  -31.9540   57.9500 C   0  0  0  0  0  0  0  0  0  0  0  0
  -14.8510  -31.7480   58.7000 C   0  0  0  0  0  0  0  0  0  0  0  0
  -12.7330  -31.1330   55.9440 H   0  0  0  0  0  0  0  0  0  0  0  0
  -14.8980  -31.4800   54.6770 H   0  0  0  0  0  0  0  0  0  0  0  0
  -17.0040  -32.1640   58.4630 H   0  0  0  0  0  0  0  0  0  0  0  0
  -14.8390  -31.8170   59.7300 H   0  0  0  0  0  0  0  0  0  0  0  0
  -18.0260  -29.5070   55.1800 C   0  0  0  0  0  0  0  0  0  0  0  0
  -16.8080  -28.9380   54.5140 C   0  0  0  0  0  0  0  0  0  0  0  0
  -16.5380  -27.4630   54.5770 C   0  0  0  0  0  3  0  0  0  0  0  0
  -17.4870  -26.5580   55.3050 N   0  0  0  0  0  0  0  0  0  0  0  0
  -18.7050  -27.1270   55.9710 C   0  0  0  0  0  0  0  0  0  0  0  0
  -18.9750  -28.6010   55.9080 N   0  0  0  0  0  0  0  0  0  0  0  0
  -16.1550  -29.5600   54.0130 H   0  0  0  0  0  0  0  0  0  0  0  0
  -15.7000  -27.0720   54.1190 H   0  0  0  0  0  0  0  0  0  0  0  0
  -19.6540  -26.2220   56.6990 O   0  0  0  0  0  0  0  0  0  0  0  0
  -21.1120  -26.2250   56.3480 C   0  0  0  0  0  0  0  0  0  0  0  0
  -21.7370  -27.4500   55.7470 C   0  0  0  0  0  0  0  0  0  0  0  0
  -23.1940  -27.4520   55.3960 C   0  0  0  0  0  0  0  0  0  0  0  0
  -24.0290  -26.2310   55.6460 C   0  0  0  0  0  0  0  0  0  0  0  0
  -25.4870  -26.2340   55.2950 Cl  0  0  0  0  0  0  0  0  0  0  0  0
  -23.4040  -25.0060   56.2460 C   0  0  0  0  0  0  0  0  0  0  0  0
  -21.9460  -25.0040   56.5970 C   0  0  0  0  0  0  0  0  0  0  0  0
  -21.1630  -28.2890   55.5760 H   0  0  0  0  0  0  0  0  0  0  0  0
  -23.6240  -28.2950   54.9830 H   0  0  0  0  0  0  0  0  0  0  0  0
  -23.9780  -24.1660   56.4180 H   0  0  0  0  0  0  0  0  0  0  0  0
  -21.5170  -24.1600   57.0110 H   0  0  0  0  0  0  0  0  0  0  0  0
  1 27  1  0
  2  1  1  0
  3  2  2  0
  4  3  1  0
  4  5  2  0
  5 34  1  0
  5  1  1  0
  6  3  1  0
 11 19  1  0
 11 20  1  0
 12 22  1  0
 12 21  1  0
 13  7  1  0
 14  8  1  0
 15  8  1  0
 16  9  1  0
 17  9  1  0
 18 10  1  0
 24 29  1  0
 24 23  1  0
 25 24  2  0
 26 27  2  0
 26 25  1  0
 27 28  1  0
 28 32  1  0
 28 29  2  0
 29 33  1  0
 30 25  1  0
 31 26  1  0
 34 39  1  0
 35 36  1  0
 35 34  2  0
 36 37  1  0
 37 38  2  0
 38 42  1  0
 39 38  2  0
 40 35  1  0
 41 36  1  0
 43 49  1  0
 43 42  1  0
 44 43  2  0
 45 46  2  0
 45 44  1  0
 46 48  1  0
 47 46  1  0
 48 52  1  0
 48 49  2  0
 49 53  1  0
 50 44  1  0
 51 45  1  0
M  END
>  <minimizedAffinity>  (54) 
-8.97558212

$$$$

     RDKit          3D

 36 38  0  0  0  0  0  0  0  0999 V2000
  -21.3450  -27.6360   54.9370 N   0  0  0  0  0  0  0  0  0  0  0  0
  -22.5460  -28.1710   54.2140 C   0  0  0  0  0  0  0  0  0  0  0  0
  -23.6580  -27.1750   54.3600 N   0  0  0  0  0  0  0  0  0  0  0  0
  -23.1440  -26.0240   55.1740 C   0  0  0  0  0  0  0  0  0  0  0  0
  -23.7930  -24.7540   55.6370 C   0  0  0  0  0  0  0  0  0  0  0  0
  -23.0140  -23.7680   56.4560 N   0  0  0  0  0  0  0  0  0  0  0  0
  -21.5850  -24.0530   56.8120 C   0  0  0  0  0  0  0  0  0  0  0  0
  -20.9350  -25.3240   56.3490 C   0  0  0  0  0  0  0  0  0  0  0  0
  -21.7150  -26.3090   55.5300 C   0  0  0  0  0  0  0  0  0  0  0  0
  -24.7770  -24.5580   55.3920 H   0  0  0  0  0  0  0  0  0  0  0  0
  -21.0480  -23.3750   57.3760 H   0  0  0  0  0  0  0  0  0  0  0  0
  -19.9520  -25.5200   56.5940 H   0  0  0  0  0  0  0  0  0  0  0  0
  -17.3380  -29.6560   55.2670 C   0  0  0  0  0  3  0  0  0  0  0  0
  -17.5290  -28.5210   54.3060 C   0  0  0  0  0  0  0  0  0  0  0  0
  -18.8640  -27.8480   54.1960 C   0  0  0  0  0  0  0  0  0  0  0  0
  -20.0100  -28.3090   55.0470 C   0  0  0  0  0  0  0  0  0  0  0  0
  -19.8190  -29.4450   56.0080 C   0  0  0  0  0  0  0  0  0  0  0  0
  -18.4830  -30.1190   56.1180 C   0  0  0  0  0  0  0  0  0  0  0  0
  -16.7410  -28.2030   53.7200 H   0  0  0  0  0  0  0  0  0  0  0  0
  -18.9950  -27.0660   53.5340 H   0  0  0  0  0  0  0  0  0  0  0  0
  -20.6070  -29.7630   56.5940 H   0  0  0  0  0  0  0  0  0  0  0  0
  -18.3530  -30.8990   56.7800 H   0  0  0  0  0  0  0  0  0  0  0  0
  -16.0020  -30.3300   55.3780 C   0  0  0  0  0  3  0  0  0  0  0  0
  -15.9070  -31.3700   55.1480 H   0  0  0  0  0  0  0  0  0  0  0  0
  -16.8600  -30.8900   55.0690 H   0  0  0  0  0  0  0  0  0  0  0  0
  -14.8000  -29.5450   55.8110 N   0  0  0  0  0  0  0  0  0  0  0  0
  -14.8900  -28.5520   56.0300 H   0  0  0  0  0  0  0  0  0  0  0  0
  -13.8910  -30.0020   55.8860 H   0  0  0  0  0  0  0  0  0  0  0  0
  -22.6210  -29.4730   53.4740 C   0  0  0  0  0  0  0  0  0  0  0  0
  -21.6460  -29.9590   52.4420 N   0  0  0  0  0  0  0  0  0  0  0  0
  -22.1070  -31.3050   51.9660 O   0  0  0  0  0  0  0  0  0  0  0  0
  -23.3670  -31.6510   52.7030 N   0  0  0  0  0  0  0  0  0  0  0  0
  -23.6850  -30.5190   53.6360 C   0  0  0  0  0  0  0  0  0  0  0  0
  -24.8590  -30.4460   54.5650 N   0  0  0  0  0  0  0  0  0  0  0  0
  -24.9820  -29.6570   55.1410 H   0  0  0  0  0  0  0  0  0  0  0  0
  -25.5060  -31.1870   54.6000 H   0  0  0  0  0  0  0  0  0  0  0  0
  1 16  1  0
  1  9  1  0
  2  3  2  0
  2  1  1  0
  3  4  1  0
  4  9  2  0
  4  5  1  0
  5  6  2  0
  6  7  1  0
  7 11  1  0
  8 12  1  0
  8  7  2  0
  9  8  1  0
 10  5  1  0
 13 18  1  0
 14 13  2  0
 15 14  1  0
 15 16  2  0
 16 17  1  0
 17 18  2  0
 17 21  1  0
 18 22  1  0
 19 14  1  0
 20 15  1  0
 23 26  1  0
 24 23  1  0
 25 23  1  0
 26 28  1  0
 26 27  1  0
 29 33  1  0
 29  2  1  0
 30 29  2  0
 31 30  1  0
 31 32  1  0
 32 33  2  0
 33 34  1  0
 34 36  1  0
 34 35  1  0
M  END
>  <minimizedAffinity>  (55) 
-7.90123653

$$$$

     RDKit          3D

 48 52  0  0  0  0  0  0  0  0999 V2000
  -20.3960  -28.8760   54.2910 C   0  0  0  0  0  0  0  0  0  0  0  0
  -21.7690  -28.2810   54.1980 N   0  0  0  0  0  0  0  0  0  0  0  0
  -21.7530  -26.9640   54.9180 N   0  0  0  0  0  0  0  0  0  0  0  0
  -22.8200  -25.9360   55.1530 N   0  0  0  0  0  0  0  0  0  0  0  0
  -22.5030  -24.6900   55.9260 C   0  0  0  0  0  0  0  0  0  0  0  0
  -21.1200  -24.4730   56.4640 C   0  0  0  0  0  0  0  0  0  0  0  0
  -20.0530  -25.5010   56.2290 C   0  0  0  0  0  0  0  0  0  0  0  0
  -20.3700  -26.7470   55.4560 C   0  0  0  0  0  0  0  0  0  0  0  0
  -19.5300  -27.9280   55.0680 C   0  0  0  0  0  0  0  0  0  0  0  0
  -23.2370  -23.9820   56.0880 H   0  0  0  0  0  0  0  0  0  0  0  0
  -20.9020  -23.6150   56.9960 H   0  0  0  0  0  0  0  0  0  0  0  0
  -19.1010  -25.3510   56.5990 H   0  0  0  0  0  0  0  0  0  0  0  0
  -19.0970  -32.8150   52.5450 C   0  0  0  0  0  0  0  0  0  0  0  0
  -20.0430  -32.7850   53.7090 C   0  0  0  0  0  0  0  0  0  0  0  0
  -20.4760  -31.4720   54.2910 C   0  0  0  0  0  0  0  0  0  0  0  0
  -19.9630  -30.1890   53.7090 C   0  0  0  0  0  0  0  0  0  0  0  0
  -19.0170  -30.2180   52.5450 C   0  0  0  0  0  0  0  0  0  0  0  0
  -18.5850  -31.5310   51.9630 C   0  0  0  0  0  0  0  0  0  0  0  0
  -20.3960  -33.6690   54.1100 H   0  0  0  0  0  0  0  0  0  0  0  0
  -21.1260  -31.4530   55.0920 H   0  0  0  0  0  0  0  0  0  0  0  0
  -18.6650  -29.3340   52.1440 H   0  0  0  0  0  0  0  0  0  0  0  0
  -17.9340  -31.5510   51.1620 H   0  0  0  0  0  0  0  0  0  0  0  0
  -18.6650  -34.1270   51.9630 O   0  0  0  0  0  0  0  0  0  0  0  0
  -17.2290  -34.5520   52.0550 C   0  0  0  0  0  0  0  0  0  0  0  0
  -16.5130  -33.9180   52.5350 H   0  0  0  0  0  0  0  0  0  0  0  0
  -16.9200  -35.4880   51.6390 H   0  0  0  0  0  0  0  0  0  0  0  0
  -16.2040  -34.8540   52.1200 H   0  0  0  0  0  0  0  0  0  0  0  0
  -18.0820  -28.1270   55.4000 C   0  0  0  0  0  0  0  0  0  0  0  0
  -17.1380  -26.9610   55.3690 C   0  0  0  0  0  0  0  0  0  0  0  0
  -15.6900  -27.1600   55.7010 C   0  0  0  0  0  0  0  0  0  0  0  0
  -15.1830  -28.5240   56.0630 N   0  0  0  0  0  0  0  0  0  0  0  0
  -16.1260  -29.6900   56.0940 C   0  0  0  0  0  0  0  0  0  0  0  0
  -15.6210  -31.0550   56.4560 N   0  0  0  0  0  0  0  0  0  0  0  0
  -17.5760  -29.4910   55.7620 N   0  0  0  0  0  0  0  0  0  0  0  0
  -17.4870  -26.0220   55.1200 H   0  0  0  0  0  0  0  0  0  0  0  0
  -15.0410  -26.3570   55.6800 H   0  0  0  0  0  0  0  0  0  0  0  0
  -16.2390  -31.8210   56.4760 H   0  0  0  0  0  0  0  0  0  0  0  0
  -14.1710  -31.2540   56.7880 C   0  0  0  0  0  0  0  0  0  0  0  0
  -13.1360  -31.1730   55.7050 C   0  0  0  0  0  0  0  0  0  0  0  0
  -11.6870  -31.3720   56.0370 C   0  0  0  0  0  0  0  0  0  0  0  0
  -11.2720  -31.6520   57.4510 C   0  0  0  0  0  0  0  0  0  0  0  0
   -9.8230  -31.8520   57.7820 F   0  0  0  0  0  0  0  0  0  0  0  0
  -12.3070  -31.7330   58.5330 C   0  0  0  0  0  0  0  0  0  0  0  0
  -11.8930  -32.0140   59.9480 F   0  0  0  0  0  0  0  0  0  0  0  0
  -13.7560  -31.5340   58.2020 C   0  0  0  0  0  0  0  0  0  0  0  0
  -13.4210  -30.9800   54.7320 H   0  0  0  0  0  0  0  0  0  0  0  0
  -10.9750  -31.3170   55.2920 H   0  0  0  0  0  0  0  0  0  0  0  0
  -14.4690  -31.5900   58.9460 H   0  0  0  0  0  0  0  0  0  0  0  0
  1  9  1  0
  2  1  2  0
  2  3  1  0
  3  4  1  0
  3  8  1  0
  4  5  2  0
  5 10  1  0
  5  6  1  0
  6 11  1  0
  7  6  2  0
  7 12  1  0
  8  7  1  0
  9 28  1  0
  9  8  2  0
 13 14  1  0
 14 19  1  0
 14 15  2  0
 15 20  1  0
 16 15  1  0
 16  1  1  0
 17 16  2  0
 18 17  1  0
 18 13  2  0
 21 17  1  0
 22 18  1  0
 23 24  1  0
 23 13  1  0
 24 27  1  0
 24 25  1  0
 26 24  1  0
 28 34  2  0
 29 28  1  0
 29 30  2  0
 30 31  1  0
 31 32  2  0
 32 33  1  0
 33 37  1  0
 33 38  1  0
 34 32  1  0
 35 29  1  0
 36 30  1  0
 38 45  1  0
 39 40  1  0
 39 38  2  0
 40 41  2  0
 41 42  1  0
 41 43  1  0
 43 44  1  0
 45 43  2  0
 45 48  1  0
 46 39  1  0
 47 40  1  0
M  END
>  <minimizedAffinity>  (56) 
-8.60814095

$$$$

     RDKit          3D

 54 51  0  0  0  0  0  0  0  0999 V2000
  -26.7440  -28.7660   55.2220 C   0  0  0  0  0  3  0  0  0  0  0  0
  -25.2480  -28.7240   55.1220 C   0  0  0  0  0  0  0  0  0  0  0  0
  -24.5150  -27.4410   55.3800 C   0  0  0  0  0  0  0  0  0  0  0  0
  -25.2790  -26.2000   55.7380 C   0  0  0  0  0  0  0  0  0  0  0  0
  -26.7740  -26.2420   55.8380 C   0  0  0  0  0  0  0  0  0  0  0  0
  -27.5070  -27.5260   55.5800 C   0  0  0  0  0  0  0  0  0  0  0  0
  -24.7230  -29.5770   54.8760 H   0  0  0  0  0  0  0  0  0  0  0  0
  -23.4870  -27.4120   55.3110 H   0  0  0  0  0  0  0  0  0  0  0  0
  -27.2990  -25.3890   56.0840 H   0  0  0  0  0  0  0  0  0  0  0  0
  -28.9420  -32.6160   54.4490 N   0  0  0  0  0 15  0  0  0  0  0  0
  -28.4790  -32.2830   55.8370 C   0  0  0  0  0  2  0  0  0  0  0  0
  -27.7460  -30.9990   56.0940 C   0  0  0  0  0  2  0  0  0  0  0  0
  -27.4770  -30.0500   54.9640 N   0  0  0  0  0  1  0  0  0  0  0  0
  -27.9400  -30.3840   53.5780 C   0  0  0  0  0  3  0  0  0  0  0  0
  -28.6720  -31.6670   53.3200 C   0  0  0  0  0  2  0  0  0  0  0  0
  -28.6720  -32.9600   56.6420 H   0  0  0  0  0  0  0  0  0  0  0  0
  -28.1490  -32.0440   56.8260 H   0  0  0  0  0  0  0  0  0  0  0  0
  -27.4160  -30.7610   57.0840 H   0  0  0  0  0  0  0  0  0  0  0  0
  -27.2230  -30.0840   56.2780 H   0  0  0  0  0  0  0  0  0  0  0  0
  -27.7480  -29.7070   52.7720 H   0  0  0  0  0  0  0  0  0  0  0  0
  -28.2700  -30.6210   52.5880 H   0  0  0  0  0  0  0  0  0  0  0  0
  -29.0030  -31.9040   52.3300 H   0  0  0  0  0  0  0  0  0  0  0  0
  -29.1950  -32.5820   53.1360 H   0  0  0  0  0  0  0  0  0  0  0  0
  -29.6750  -33.8990   54.1920 C   0  0  0  0  0  3  0  0  0  0  0  0
  -29.8680  -34.5770   54.9970 H   0  0  0  0  0  0  0  0  0  0  0  0
  -30.0050  -34.1370   53.2020 H   0  0  0  0  0  0  0  0  0  0  0  0
  -30.1980  -34.8150   54.0070 H   0  0  0  0  0  0  0  0  0  0  0  0
  -24.5460  -24.9170   55.9950 N   0  0  0  0  0  0  0  0  0  0  0  0
  -23.0500  -24.9190   56.1140 C   0  0  0  0  0  0  0  0  0  0  0  0
  -22.3170  -23.6360   56.3720 N   0  0  0  0  0  0  0  0  0  0  0  0
  -20.8220  -23.6370   56.4910 C   0  0  0  0  0  0  0  0  0  0  0  0
  -20.0600  -24.9220   56.3520 C   0  0  0  0  0  0  0  0  0  0  0  0
  -20.7930  -26.2050   56.0940 C   0  0  0  0  0  0  0  0  0  0  0  0
  -22.2880  -26.2020   55.9750 N   0  0  0  0  0  0  0  0  0  0  0  0
  -25.0450  -24.0740   56.0870 H   0  0  0  0  0  0  0  0  0  0  0  0
  -20.3180  -22.7550   56.6680 H   0  0  0  0  0  0  0  0  0  0  0  0
  -19.0310  -24.9220   56.4330 H   0  0  0  0  0  0  0  0  0  0  0  0
  -20.0310  -27.4880   55.9550 C   0  0  0  0  0  0  0  0  0  0  0  0
  -20.6220  -28.8670   55.9290 C   0  0  0  0  0  0  0  0  0  0  0  0
  -19.5000  -29.8510   55.7750 N   0  0  0  0  0  0  0  0  0  0  0  0
  -18.2140  -29.0790   55.7070 N   0  0  0  0  0  0  0  0  0  0  0  0
  -16.7880  -29.5180   55.5580 N   0  0  0  0  0  0  0  0  0  0  0  0
  -15.6890  -28.4970   55.5200 C   0  0  0  0  0  0  0  0  0  0  0  0
  -16.0180  -27.0380   55.6310 C   0  0  0  0  0  0  0  0  0  0  0  0
  -17.4440  -26.5990   55.7800 C   0  0  0  0  0  0  0  0  0  0  0  0
  -18.5430  -27.6200   55.8180 C   0  0  0  0  0  0  0  0  0  0  0  0
  -21.6250  -29.0980   56.0030 H   0  0  0  0  0  0  0  0  0  0  0  0
  -14.7080  -28.7990   55.4170 H   0  0  0  0  0  0  0  0  0  0  0  0
  -15.2620  -26.3350   55.6040 H   0  0  0  0  0  0  0  0  0  0  0  0
  -17.6700  -25.5950   55.8560 H   0  0  0  0  0  0  0  0  0  0  0  0
  -29.0040  -27.5680   55.6800 C   0  0  0  0  0  0  0  0  0  0  0  0
  -30.4990  -27.6090   55.7790 F   0  0  0  0  0  0  0  0  0  0  0  0
  -28.8960  -27.9760   57.1190 F   0  0  0  0  0  0  0  0  0  0  0  0
  -29.1110  -27.1590   54.2400 F   0  0  0  0  0  0  0  0  0  0  0  0
  1  6  1  0
  2  1  2  0
  2  3  1  0
  3  4  2  0
  4  5  1  0
  4 28  1  0
  5  9  1  0
  6 51  1  0
  6  5  2  0
  7  2  1  0
  8  3  1  0
 11 16  1  0
 11 17  1  0
 12 19  1  0
 12 18  1  0
 14 13  1  0
 20 14  1  0
 21 14  1  0
 22 15  1  0
 23 15  1  0
 24 25  1  0
 26 24  1  0
 27 24  1  0
 28 35  1  0
 28 29  1  0
 29 30  2  0
 30 31  1  0
 31 36  1  0
 32 37  1  0
 32 31  2  0
 33 32  1  0
 34 33  2  0
 34 29  1  0
 38 33  1  0
 39 38  1  0
 39 47  1  0
 40 39  2  0
 41 40  1  0
 41 46  1  0
 42 41  1  0
 43 42  2  0
 43 44  1  0
 44 45  2  0
 45 46  1  0
 45 50  1  0
 46 38  2  0
 48 43  1  0
 49 44  1  0
 51 52  1  0
 51 53  1  0
 54 51  1  0
M  END
>  <minimizedAffinity>  (57) 
-9.34066296

$$$$

     RDKit          3D

 50 48  0  0  0  0  0  0  0  0999 V2000
  -22.9530  -31.9390   52.3840 C   0  0  0  0  0  3  0  0  0  0  0  0
  -23.8450  -31.0710   53.2210 C   0  0  0  0  0 15  0  0  0  0  0  0
  -25.1950  -31.5690   53.6420 C   0  0  0  0  0  3  0  0  0  0  0  0
  -25.6540  -32.9350   53.2260 C   0  0  0  0  0  3  0  0  0  0  0  0
  -24.7620  -33.8030   52.3890 C   0  0  0  0  0 15  0  0  0  0  0  0
  -25.2210  -35.1690   51.9730 O   0  0  0  0  0 15  0  0  0  0  0  0
  -23.4110  -33.3050   51.9680 N   0  0  0  0  0  0  0  0  0  0  0  0
  -24.8680  -30.5950   53.9380 H   0  0  0  0  0  0  0  0  0  0  0  0
  -26.6180  -33.2900   53.5270 H   0  0  0  0  0  0  0  0  0  0  0  0
  -25.9820  -33.9100   52.9290 H   0  0  0  0  0  0  0  0  0  0  0  0
  -22.8260  -33.8760   51.4190 H   0  0  0  0  0  0  0  0  0  0  0  0
  -26.0870  -30.7010   54.4790 C   0  0  0  0  0  0  0  0  0  0  0  0
  -26.7260  -29.4830   53.8790 C   0  0  0  0  0  0  0  0  0  0  0  0
  -27.6180  -28.6150   54.7160 C   0  0  0  0  0  0  0  0  0  0  0  0
  -27.8710  -28.9640   56.1530 C   0  0  0  0  0  0  0  0  0  0  0  0
  -28.7630  -28.0960   56.9900 C   0  0  0  0  0  0  0  0  0  0  0  0
  -29.0160  -28.4450   58.4270 C   0  0  0  0  0  0  0  0  0  0  0  0
  -28.3770  -29.6620   59.0260 C   0  0  0  0  0  0  0  0  0  0  0  0
  -27.4850  -30.5310   58.1890 C   0  0  0  0  0  0  0  0  0  0  0  0
  -27.2320  -30.1810   56.7530 C   0  0  0  0  0  0  0  0  0  0  0  0
  -26.3400  -31.0500   55.9160 C   0  0  0  0  0  0  0  0  0  0  0  0
  -26.5520  -29.2430   52.8910 H   0  0  0  0  0  0  0  0  0  0  0  0
  -28.0580  -27.7780   54.3040 H   0  0  0  0  0  0  0  0  0  0  0  0
  -29.2030  -27.2580   56.5770 H   0  0  0  0  0  0  0  0  0  0  0  0
  -29.6300  -27.8480   59.0030 H   0  0  0  0  0  0  0  0  0  0  0  0
  -28.5510  -29.9020   60.0150 H   0  0  0  0  0  0  0  0  0  0  0  0
  -27.0450  -31.3680   58.6020 H   0  0  0  0  0  0  0  0  0  0  0  0
  -25.9010  -31.8870   56.3280 H   0  0  0  0  0  0  0  0  0  0  0  0
  -21.6020  -31.4410   51.9630 C   0  0  0  0  0  0  0  0  0  0  0  0
  -21.2740  -30.4670   52.2590 H   0  0  0  0  0  0  0  0  0  0  0  0
  -20.9650  -32.0610   51.3660 H   0  0  0  0  0  0  0  0  0  0  0  0
  -20.6380  -31.0860   51.6630 H   0  0  0  0  0  0  0  0  0  0  0  0
  -23.3860  -29.7050   53.6370 C   0  0  0  0  0  2  0  0  0  0  0  0
  -23.6260  -28.5270   52.7390 O   0  0  0  0  0  1  0  0  0  0  0  0
  -22.6860  -29.5160   54.9500 N   0  0  0  0  0  0  0  0  0  0  0  0
  -22.5290  -30.2890   55.5390 H   0  0  0  0  0  0  0  0  0  0  0  0
  -22.2280  -28.1500   55.3660 C   0  0  0  0  0  0  0  0  0  0  0  0
  -20.7730  -27.8960   55.6320 C   0  0  0  0  0  0  0  0  0  0  0  0
  -20.3150  -26.5300   56.0480 C   0  0  0  0  0  0  0  0  0  0  0  0
  -21.3100  -25.4180   56.1980 C   0  0  0  0  0  0  0  0  0  0  0  0
  -21.1550  -23.9780   56.5910 N   0  0  0  0  0  0  0  0  0  0  0  0
  -22.5130  -23.3430   56.5680 N   0  0  0  0  0  0  0  0  0  0  0  0
  -23.5080  -24.3890   56.1610 C   0  0  0  0  0  0  0  0  0  0  0  0
  -22.7640  -25.6720   55.9320 C   0  0  0  0  0  0  0  0  0  0  0  0
  -23.2230  -27.0380   55.5170 C   0  0  0  0  0  0  0  0  0  0  0  0
  -20.0890  -28.6610   55.5280 H   0  0  0  0  0  0  0  0  0  0  0  0
  -19.3140  -26.3550   56.2310 H   0  0  0  0  0  0  0  0  0  0  0  0
  -20.3100  -23.5290   56.8230 H   0  0  0  0  0  0  0  0  0  0  0  0
  -24.5260  -24.2520   56.0570 H   0  0  0  0  0  0  0  0  0  0  0  0
  -24.2240  -27.2130   55.3340 H   0  0  0  0  0  0  0  0  0  0  0  0
  3  8  1  0
  3 12  1  0
  4  9  1  0
  4  3  1  0
  7  1  2  0
 10  4  1  0
 11  7  1  0
 12 21  1  0
 13 12  2  0
 13 14  1  0
 14 15  2  0
 15 20  1  0
 15 16  1  0
 16 17  2  0
 17 25  1  0
 17 18  1  0
 18 26  1  0
 19 27  1  0
 19 18  2  0
 20 19  1  0
 21 28  1  0
 21 20  2  0
 22 13  1  0
 23 14  1  0
 24 16  1  0
 29 30  1  0
 29  1  1  0
 31 29  1  0
 32 29  1  0
 33 35  1  0
 34 33  1  0
 35 37  1  0
 35 36  1  0
 37 45  2  0
 37 38  1  0
 38 39  2  0
 39 40  1  0
 39 47  1  0
 40 41  1  0
 41 48  1  0
 42 41  1  0
 43 42  2  0
 44 43  1  0
 44 40  2  0
 45 44  1  0
 46 38  1  0
 49 43  1  0
 50 45  1  0
M  END
>  <minimizedAffinity>  (58) 
-11.0242004

$$$$

     RDKit          3D

 68 65  0  0  0  0  0  0  0  0999 V2000
  -16.3630  -28.3960   55.6330 N   0  0  0  0  0  0  0  0  0  0  0  0
  -15.4630  -27.1990   55.5450 C   0  0  0  0  0  0  0  0  0  0  0  0
  -16.3240  -25.9710   55.5140 N   0  0  0  0  0  0  0  0  0  0  0  0
  -17.7580  -26.4100   55.5820 C   0  0  0  0  0  0  0  0  0  0  0  0
  -19.0440  -25.6380   55.5870 C   0  0  0  0  0  0  0  0  0  0  0  0
  -20.3540  -26.3650   55.6650 C   0  0  0  0  0  0  0  0  0  0  0  0
  -20.3780  -27.8630   55.7390 C   0  0  0  0  0  0  0  0  0  0  0  0
  -19.0920  -28.6340   55.7340 C   0  0  0  0  0  0  0  0  0  0  0  0
  -17.7820  -27.9080   55.6550 C   0  0  0  0  0  0  0  0  0  0  0  0
  -14.4320  -27.2170   55.5120 H   0  0  0  0  0  0  0  0  0  0  0  0
  -19.0280  -24.6080   55.5360 H   0  0  0  0  0  0  0  0  0  0  0  0
  -21.2390  -25.8340   55.6680 H   0  0  0  0  0  0  0  0  0  0  0  0
  -19.1080  -29.6650   55.7840 H   0  0  0  0  0  0  0  0  0  0  0  0
  -14.5460  -31.8120   55.9280 C   0  0  0  0  0  3  0  0  0  0  0  0
  -14.5320  -30.3140   55.9710 C   0  0  0  0  0  0  0  0  0  0  0  0
  -15.9230  -29.8280   55.6880 C   0  0  0  0  0  0  0  0  0  0  0  0
  -16.7960  -31.0280   55.4690 S   0  0  0  0  0  0  0  0  0  0  0  0
  -15.9450  -32.2550   55.6170 C   0  0  0  0  0  0  0  0  0  0  0  0
  -13.7100  -29.7200   56.1630 H   0  0  0  0  0  0  0  0  0  0  0  0
  -16.4120  -33.6730   55.4790 C   0  0  0  0  0  0  0  0  0  0  0  0
  -15.4190  -34.7680   55.2170 N   0  0  0  0  0  0  0  0  0  0  0  0
  -17.8710  -33.9980   55.6020 O   0  0  0  0  0  0  0  0  0  0  0  0
  -15.7260  -35.6980   55.1270 H   0  0  0  0  0  0  0  0  0  0  0  0
  -14.4620  -34.5550   55.1360 H   0  0  0  0  0  0  0  0  0  0  0  0
  -13.3670  -32.7130   56.1550 O   0  0  0  0  0 15  0  0  0  0  0  0
  -12.9900  -33.1160   57.5500 C   0  0  0  0  0  3  0  0  0  0  0  0
  -13.4620  -33.8210   56.8990 H   0  0  0  0  0  0  0  0  0  0  0  0
  -12.3280  -32.1260   58.4620 C   0  0  0  0  0  0  0  0  0  0  0  0
  -13.0710  -31.5800   59.6450 C   0  0  0  0  0  0  0  0  0  0  0  0
  -12.4090  -30.5910   60.5570 C   0  0  0  0  0  0  0  0  0  0  0  0
  -11.0020  -30.1470   60.2860 C   0  0  0  0  0  0  0  0  0  0  0  0
  -10.2580  -30.6920   59.1040 C   0  0  0  0  0  0  0  0  0  0  0  0
  -10.9210  -31.6820   58.1920 C   0  0  0  0  0  0  0  0  0  0  0  0
  -14.0400  -31.8860   59.8310 H   0  0  0  0  0  0  0  0  0  0  0  0
  -12.9210  -30.2150   61.3710 H   0  0  0  0  0  0  0  0  0  0  0  0
  -10.5460  -29.4660   60.9130 H   0  0  0  0  0  0  0  0  0  0  0  0
   -9.2890  -30.3870   58.9170 H   0  0  0  0  0  0  0  0  0  0  0  0
  -10.1760  -32.2270   57.0100 C   0  0  0  0  0  0  0  0  0  0  0  0
   -9.4310  -32.7730   55.8270 F   0  0  0  0  0  0  0  0  0  0  0  0
  -10.6730  -31.0880   56.1700 F   0  0  0  0  0  0  0  0  0  0  0  0
   -9.6790  -33.3670   57.8490 F   0  0  0  0  0  0  0  0  0  0  0  0
  -13.2740  -34.5070   58.0320 C   0  0  0  0  0  0  0  0  0  0  0  0
  -13.0040  -34.7940   59.0270 H   0  0  0  0  0  0  0  0  0  0  0  0
  -13.7460  -35.2120   57.3800 H   0  0  0  0  0  0  0  0  0  0  0  0
  -13.4770  -35.5000   58.3760 H   0  0  0  0  0  0  0  0  0  0  0  0
  -21.6880  -28.5890   55.8170 O   0  0  0  0  0  0  0  0  0  0  0  0
  -22.7280  -28.3750   54.7580 C   0  0  0  0  0  0  0  0  0  0  0  0
  -22.4610  -28.4430   53.7240 H   0  0  0  0  0  0  0  0  0  0  0  0
  -23.4710  -28.2230   54.0020 H   0  0  0  0  0  0  0  0  0  0  0  0
  -24.1430  -28.0670   55.1480 C   0  0  0  0  0  2  0  0  0  0  0  0
  -24.5730  -26.6440   55.3490 C   0  0  0  0  0  2  0  0  0  0  0  0
  -25.9880  -26.3350   55.7390 C   0  0  0  0  0  2  0  0  0  0  0  0
  -26.9740  -27.4500   55.9290 N   0  0  0  0  0  0  0  0  0  0  0  0
  -26.5440  -28.8730   55.7280 C   0  0  0  0  0  0  0  0  0  0  0  0
  -25.1290  -29.1820   55.3370 C   0  0  0  0  0  2  0  0  0  0  0  0
  -25.1530  -27.8470   55.4270 H   0  0  0  0  0  0  0  0  0  0  0  0
  -23.8690  -25.8490   55.2140 H   0  0  0  0  0  0  0  0  0  0  0  0
  -24.8790  -25.6280   55.4920 H   0  0  0  0  0  0  0  0  0  0  0  0
  -26.2940  -25.3200   55.8830 H   0  0  0  0  0  0  0  0  0  0  0  0
  -26.9970  -26.1150   56.0180 H   0  0  0  0  0  0  0  0  0  0  0  0
  -27.2470  -29.6680   55.8630 H   0  0  0  0  0  0  0  0  0  0  0  0
  -26.2380  -29.8880   55.5850 H   0  0  0  0  0  0  0  0  0  0  0  0
  -24.8230  -30.1960   55.1940 H   0  0  0  0  0  0  0  0  0  0  0  0
  -24.1200  -29.4010   55.0590 H   0  0  0  0  0  0  0  0  0  0  0  0
  -28.3890  -27.1410   56.3190 C   0  0  0  0  0  0  0  0  0  0  0  0
  -28.6950  -26.1260   56.4620 H   0  0  0  0  0  0  0  0  0  0  0  0
  -29.0920  -27.9360   56.4540 H   0  0  0  0  0  0  0  0  0  0  0  0
  -29.3980  -26.9210   56.5980 H   0  0  0  0  0  0  0  0  0  0  0  0
  1  9  1  0
  1 16  1  0
  2  1  1  0
  3  2  2  0
  3  4  1  0
  4  5  2  0
  4  9  1  0
  5  6  1  0
  6 12  1  0
  6  7  2  0
  7 46  1  0
  8  7  1  0
  8 13  1  0
  9  8  2  0
 10  2  1  0
 11  5  1  0
 14 15  1  0
 15 19  1  0
 16 15  2  0
 17 18  1  0
 17 16  1  0
 18 14  2  0
 20 22  2  0
 20 18  1  0
 21 20  1  0
 23 21  1  0
 24 21  1  0
 26 42  1  0
 26 28  1  0
 27 26  1  0
 28 29  1  0
 29 34  1  0
 29 30  2  0
 30 35  1  0
 31 30  1  0
 31 36  1  0
 32 31  2  0
 33 28  2  0
 33 32  1  0
 37 32  1  0
 38 41  1  0
 38 33  1  0
 39 38  1  0
 40 38  1  0
 42 45  1  0
 42 43  1  0
 44 42  1  0
 47 50  1  0
 47 46  1  0
 48 47  1  0
 49 47  1  0
 50 56  1  0
 51 58  1  0
 52 59  1  0
 52 60  1  0
 53 65  1  0
 54 61  1  0
 54 53  2  0
 57 51  1  0
 62 54  1  0
 63 55  1  0
 64 55  1  0
 65 67  1  0
 65 66  1  0
 65 68  1  0
M  END
>  <minimizedAffinity>  (59) 
-11.2115154

$$$$

     RDKit          3D

 36 38  0  0  0  0  0  0  0  0999 V2000
  -16.0250  -29.5240   54.8840 N   0  0  0  0  0  0  0  0  0  0  0  0
  -15.6010  -29.6910   54.0130 H   0  0  0  0  0  0  0  0  0  0  0  0
  -14.4930  -31.4860   57.9750 C   0  0  0  0  0  0  0  0  0  0  0  0
  -15.5630  -32.5080   58.2210 C   0  0  0  0  0  0  0  0  0  0  0  0
  -16.7870  -32.5350   57.3550 C   0  0  0  0  0  0  0  0  0  0  0  0
  -16.9410  -31.5400   56.2430 C   0  0  0  0  0  0  0  0  0  0  0  0
  -15.8710  -30.5180   55.9970 C   0  0  0  0  0  0  0  0  0  0  0  0
  -14.6470  -30.4920   56.8630 C   0  0  0  0  0  0  0  0  0  0  0  0
  -15.4570  -33.1930   58.9860 H   0  0  0  0  0  0  0  0  0  0  0  0
  -17.5240  -33.2380   57.5240 H   0  0  0  0  0  0  0  0  0  0  0  0
  -17.7840  -31.5590   55.6470 H   0  0  0  0  0  0  0  0  0  0  0  0
  -13.9100  -29.7890   56.6930 H   0  0  0  0  0  0  0  0  0  0  0  0
  -13.2680  -31.4600   58.8410 S   0  0  2  0  0  0  0  0  0  0  0  0
  -12.4230  -31.8280   57.6580 O   0  0  0  0  0  0  0  0  0  0  0  0
  -14.1130  -31.0910   60.0240 O   0  0  0  0  0  0  0  0  0  0  0  0
  -12.0440  -31.4330   59.7070 N   0  0  0  0  0  0  0  0  0  0  0  0
  -11.1300  -31.6410   59.3050 H   0  0  0  0  0  0  0  0  0  0  0  0
  -12.1250  -31.2070   60.6980 H   0  0  0  0  0  0  0  0  0  0  0  0
  -16.8260  -28.2740   55.1020 C   0  0  0  0  0  0  0  0  0  0  0  0
  -18.3100  -28.2020   55.3010 C   0  0  0  0  0  0  0  0  0  0  0  0
  -18.6840  -26.7600   55.4800 C   0  0  0  0  0  0  0  0  0  0  0  0
  -17.4310  -25.9410   55.3920 N   0  0  0  0  0  0  0  0  0  0  0  0
  -16.2820  -26.8770   55.1580 N   0  0  0  0  0  0  0  0  0  0  0  0
  -18.9610  -29.0040   55.3120 H   0  0  0  0  0  0  0  0  0  0  0  0
  -15.3370  -26.6190   55.0590 H   0  0  0  0  0  0  0  0  0  0  0  0
  -20.0700  -26.2300   55.7070 C   0  0  0  0  0  0  0  0  0  0  0  0
  -20.2640  -24.9000   56.3720 C   0  0  0  0  0  0  0  0  0  0  0  0
  -21.6480  -24.3700   56.6000 C   0  0  0  0  0  0  0  0  0  0  0  0
  -22.8390  -25.1710   56.1630 C   0  0  0  0  0  0  0  0  0  0  0  0
  -24.2240  -24.6420   56.3900 F   0  0  0  0  0  0  0  0  0  0  0  0
  -22.6450  -26.5010   55.4980 C   0  0  0  0  0  0  0  0  0  0  0  0
  -21.2600  -27.0310   55.2700 C   0  0  0  0  0  0  0  0  0  0  0  0
  -19.4450  -24.3490   56.6730 H   0  0  0  0  0  0  0  0  0  0  0  0
  -21.7820  -23.4540   57.0580 H   0  0  0  0  0  0  0  0  0  0  0  0
  -23.4640  -27.0520   55.1970 H   0  0  0  0  0  0  0  0  0  0  0  0
  -21.1260  -27.9460   54.8130 H   0  0  0  0  0  0  0  0  0  0  0  0
  1 19  1  0
  1  7  1  0
  2  1  1  0
  3  4  1  0
  3 13  1  0
  4  9  1  0
  5 10  1  0
  5  4  2  0
  6  5  1  0
  7  6  2  0
  7  8  1  0
  8  3  2  0
 11  6  1  0
 12  8  1  0
 13 16  1  0
 13 15  2  0
 14 13  2  0
 16 18  1  0
 17 16  1  0
 19 23  1  0
 19 20  2  0
 20 24  1  0
 20 21  1  0
 21 26  1  0
 22 21  2  0
 23 22  1  0
 25 23  1  0
 26 27  1  0
 27 28  2  0
 27 33  1  0
 28 34  1  0
 29 30  1  0
 29 28  1  0
 31 29  2  0
 32 31  1  0
 32 26  2  0
 35 31  1  0
 36 32  1  0
M  END
>  <minimizedAffinity>  (60) 
-8.42388153

$$$$

     RDKit          3D

 66 66  0  0  0  0  0  0  0  0999 V2000
  -19.4770  -26.6300   55.8650 C   0  0  0  0  0  0  0  0  0  0  0  0
  -19.4030  -25.1990   56.3100 C   0  0  0  0  0  0  0  0  0  0  0  0
  -20.6620  -24.4070   56.4990 C   0  0  0  0  0  0  0  0  0  0  0  0
  -21.9960  -25.0450   56.2450 C   0  0  0  0  0  0  0  0  0  0  0  0
  -23.2550  -24.2530   56.4340 N   0  0  0  0  0  0  0  0  0  0  0  0
  -24.5880  -24.8910   56.1790 C   0  0  0  0  0  0  0  0  0  0  0  0
  -24.6620  -26.3220   55.7350 N   0  0  0  0  0  0  0  0  0  0  0  0
  -23.4030  -27.1140   55.5450 C   0  0  0  0  0  0  0  0  0  0  0  0
  -23.4770  -28.5450   55.1010 N   0  0  0  0  0  0  0  0  0  0  0  0
  -22.0700  -26.4760   55.8000 C   0  0  0  0  0  0  0  0  0  0  0  0
  -20.8100  -27.2680   55.6100 C   0  0  0  0  0  0  0  0  0  0  0  0
  -18.4860  -24.7600   56.4850 H   0  0  0  0  0  0  0  0  0  0  0  0
  -20.6120  -23.4220   56.8050 H   0  0  0  0  0  0  0  0  0  0  0  0
  -25.4550  -24.3450   56.3100 H   0  0  0  0  0  0  0  0  0  0  0  0
  -22.6500  -29.0650   54.9760 H   0  0  0  0  0  0  0  0  0  0  0  0
  -20.8610  -28.2530   55.3040 H   0  0  0  0  0  0  0  0  0  0  0  0
  -24.8100  -29.1830   54.8460 C   0  0  0  0  0  0  0  0  0  0  0  0
  -25.2910  -29.3790   53.4380 C   0  0  0  0  0  0  0  0  0  0  0  0
  -26.6250  -30.0170   53.1840 C   0  0  0  0  0  0  0  0  0  0  0  0
  -27.4770  -30.4590   54.3360 C   0  0  0  0  0  0  0  0  0  0  0  0
  -26.9960  -30.2640   55.7430 C   0  0  0  0  0  0  0  0  0  0  0  0
  -27.8480  -30.7060   56.8950 Cl  0  0  0  0  0  0  0  0  0  0  0  0
  -25.6620  -29.6250   55.9980 C   0  0  0  0  0  0  0  0  0  0  0  0
  -24.7050  -29.0740   52.6450 H   0  0  0  0  0  0  0  0  0  0  0  0
  -26.9550  -30.1520   52.2150 H   0  0  0  0  0  0  0  0  0  0  0  0
  -25.3320  -29.4910   56.9660 H   0  0  0  0  0  0  0  0  0  0  0  0
  -28.8100  -31.0980   54.0810 O   0  0  0  0  0  0  0  0  0  0  0  0
  -29.7950  -30.4360   53.1630 C   0  0  0  0  0  0  0  0  0  0  0  0
  -29.9600  -30.8290   52.1820 H   0  0  0  0  0  0  0  0  0  0  0  0
  -30.4980  -29.9640   52.5080 H   0  0  0  0  0  0  0  0  0  0  0  0
  -30.5500  -29.2230   53.6210 C   0  0  0  0  0  0  0  0  0  0  0  0
  -30.9780  -29.1030   55.0540 C   0  0  0  0  0  0  0  0  0  0  0  0
  -31.7330  -27.8910   55.5120 C   0  0  0  0  0  0  0  0  0  0  0  0
  -32.0590  -26.7980   54.5380 C   0  0  0  0  0  0  0  0  0  0  0  0
  -31.6310  -26.9180   53.1050 C   0  0  0  0  0  0  0  0  0  0  0  0
  -30.8760  -28.1310   52.6470 C   0  0  0  0  0  0  0  0  0  0  0  0
  -30.7540  -29.8550   55.7250 H   0  0  0  0  0  0  0  0  0  0  0  0
  -32.0270  -27.8080   56.4980 H   0  0  0  0  0  0  0  0  0  0  0  0
  -32.5780  -25.9640   54.8530 H   0  0  0  0  0  0  0  0  0  0  0  0
  -31.8550  -26.1660   52.4350 H   0  0  0  0  0  0  0  0  0  0  0  0
  -30.5810  -28.2130   51.6610 H   0  0  0  0  0  0  0  0  0  0  0  0
  -16.6770  -29.2780   55.4050 C   0  0  0  0  0  3  0  0  0  0  0  0
  -15.8830  -28.0060   55.3620 C   0  0  0  0  0  0  0  0  0  0  0  0
  -16.8350  -26.8590   55.5290 C   0  0  0  0  0  0  0  0  0  0  0  0
  -18.2180  -27.4220   55.6750 C   0  0  0  0  0  0  0  0  0  0  0  0
  -18.1190  -28.9170   55.5990 O   0  0  0  0  0  0  0  0  0  0  0  0
  -14.8610  -27.9330   55.2390 H   0  0  0  0  0  0  0  0  0  0  0  0
  -16.5830  -25.8580   55.5410 H   0  0  0  0  0  0  0  0  0  0  0  0
  -16.1240  -30.6670   55.2770 C   0  0  0  0  0  3  0  0  0  0  0  0
  -16.4090  -31.2810   54.4480 H   0  0  0  0  0  0  0  0  0  0  0  0
  -16.8030  -30.2900   54.5400 H   0  0  0  0  0  0  0  0  0  0  0  0
  -12.3210  -32.7760   59.4100 O   0  0  0  0  0  0  0  0  0  0  0  0
  -13.2720  -32.2490   58.3770 S   0  0  0  0  0  3  0  0  0  0  0  0
  -14.7520  -32.3200   58.6130 C   0  0  0  0  0  3  0  0  0  0  0  0
  -15.7020  -31.7930   57.5810 C   0  0  0  0  0  2  0  0  0  0  0  0
  -15.1730  -31.1940   56.3100 N   0  0  0  0  0  0  0  0  0  0  0  0
  -13.6940  -31.1230   56.0740 C   0  0  0  0  0  0  0  0  0  0  0  0
  -12.7430  -31.6500   57.1070 C   0  0  0  0  0  2  0  0  0  0  0  0
  -15.1290  -32.7470   59.5190 H   0  0  0  0  0  0  0  0  0  0  0  0
  -15.8070  -32.3700   58.7820 H   0  0  0  0  0  0  0  0  0  0  0  0
  -16.7580  -31.8430   57.7480 H   0  0  0  0  0  0  0  0  0  0  0  0
  -16.3810  -31.4170   56.8440 H   0  0  0  0  0  0  0  0  0  0  0  0
  -13.3170  -30.6960   55.1680 H   0  0  0  0  0  0  0  0  0  0  0  0
  -12.6380  -31.0720   55.9050 H   0  0  0  0  0  0  0  0  0  0  0  0
  -11.6880  -31.6000   56.9390 H   0  0  0  0  0  0  0  0  0  0  0  0
  -12.0650  -32.0270   57.8440 H   0  0  0  0  0  0  0  0  0  0  0  0
  1  2  1  0
  2 12  1  0
  2  3  2  0
  3 13  1  0
  4  5  1  0
  4  3  1  0
  6 14  1  0
  6  5  2  0
  7  6  1  0
  8  7  2  0
  8 10  1  0
  9  8  1  0
 10  4  2  0
 11 10  1  0
 11  1  2  0
 15  9  1  0
 16 11  1  0
 17  9  1  0
 17 23  1  0
 18 17  2  0
 19 18  1  0
 19 20  2  0
 20 21  1  0
 21 23  2  0
 21 22  1  0
 23 26  1  0
 24 18  1  0
 25 19  1  0
 27 20  1  0
 28 31  1  0
 28 27  1  0
 29 28  1  0
 30 28  1  0
 31 32  1  0
 32 33  2  0
 32 37  1  0
 33 38  1  0
 34 39  1  0
 34 33  1  0
 35 34  2  0
 36 35  1  0
 36 31  2  0
 40 35  1  0
 41 36  1  0
 42 46  1  0
 43 42  2  0
 43 44  1  0
 44 48  1  0
 44 45  2  0
 45  1  1  0
 46 45  1  0
 47 43  1  0
 49 56  1  0
 50 49  1  0
 51 49  1  0
 53 54  1  0
 53 52  2  0
 54 60  1  0
 54 59  1  0
 55 61  1  0
 57 56  2  0
 58 66  1  0
 62 55  1  0
 63 57  1  0
 64 57  1  0
 65 58  1  0
M  END
>  <minimizedAffinity>  (61) 
-11.2419109

$$$$

     RDKit          3D

 69 70  0  0  0  0  0  0  0  0999 V2000
  -23.7570  -26.7160   55.7300 C   0  0  0  0  0  0  0  0  0  0  0  0
  -23.5810  -25.2840   56.1400 C   0  0  0  0  0  0  0  0  0  0  0  0
  -22.2030  -24.7250   56.3400 C   0  0  0  0  0  0  0  0  0  0  0  0
  -21.0020  -25.5980   56.1300 C   0  0  0  0  0  0  0  0  0  0  0  0
  -19.6240  -25.0390   56.3300 N   0  0  0  0  0  0  0  0  0  0  0  0
  -18.4230  -25.9120   56.1200 C   0  0  0  0  0  0  0  0  0  0  0  0
  -18.5990  -27.3440   55.7100 N   0  0  0  0  0  0  0  0  0  0  0  0
  -19.9760  -27.9030   55.5100 C   0  0  0  0  0  0  0  0  0  0  0  0
  -20.1520  -29.3350   55.1000 N   0  0  0  0  0  0  0  0  0  0  0  0
  -21.1780  -27.0300   55.7200 C   0  0  0  0  0  0  0  0  0  0  0  0
  -22.5550  -27.5890   55.5200 C   0  0  0  0  0  0  0  0  0  0  0  0
  -24.4070  -24.6830   56.2840 H   0  0  0  0  0  0  0  0  0  0  0  0
  -22.0820  -23.7390   56.6220 H   0  0  0  0  0  0  0  0  0  0  0  0
  -17.4750  -25.5270   56.2580 H   0  0  0  0  0  0  0  0  0  0  0  0
  -21.0560  -29.7030   54.9680 H   0  0  0  0  0  0  0  0  0  0  0  0
  -22.6760  -28.5750   55.2370 H   0  0  0  0  0  0  0  0  0  0  0  0
  -18.9510  -30.2080   54.8900 C   0  0  0  0  0  0  0  0  0  0  0  0
  -18.3320  -30.3180   53.5280 C   0  0  0  0  0  0  0  0  0  0  0  0
  -17.1300  -31.1910   53.3180 C   0  0  0  0  0  0  0  0  0  0  0  0
  -16.5480  -31.9550   54.4700 C   0  0  0  0  0  0  0  0  0  0  0  0
  -17.1670  -31.8450   55.8320 C   0  0  0  0  0  0  0  0  0  0  0  0
  -18.3680  -30.9720   56.0420 C   0  0  0  0  0  0  0  0  0  0  0  0
  -18.7320  -29.7920   52.7350 H   0  0  0  0  0  0  0  0  0  0  0  0
  -16.7040  -31.2660   52.3810 H   0  0  0  0  0  0  0  0  0  0  0  0
  -18.7940  -30.8970   56.9790 H   0  0  0  0  0  0  0  0  0  0  0  0
  -16.5840  -32.6090   56.9840 C   0  0  0  0  0  0  0  0  0  0  0  0
  -16.0020  -33.3730   58.1360 F   0  0  0  0  0  0  0  0  0  0  0  0
  -17.0390  -33.8960   56.3610 F   0  0  0  0  0  0  0  0  0  0  0  0
  -16.1290  -31.3230   57.6070 F   0  0  0  0  0  0  0  0  0  0  0  0
  -15.3460  -32.8280   54.2600 O   0  0  0  0  0  0  0  0  0  0  0  0
  -13.9790  -32.3190   54.6090 C   0  0  0  0  0  0  0  0  0  0  0  0
  -13.4240  -31.7440   53.8960 H   0  0  0  0  0  0  0  0  0  0  0  0
  -13.0030  -31.9550   54.8570 H   0  0  0  0  0  0  0  0  0  0  0  0
  -13.3900  -32.6140   55.9560 C   0  0  0  0  0  0  0  0  0  0  0  0
  -13.2170  -34.0350   56.4040 C   0  0  0  0  0  0  0  0  0  0  0  0
  -12.6280  -34.3300   57.7510 C   0  0  0  0  0  0  0  0  0  0  0  0
  -12.2110  -33.2050   58.6510 C   0  0  0  0  0  0  0  0  0  0  0  0
  -12.3840  -31.7840   58.2030 C   0  0  0  0  0  0  0  0  0  0  0  0
  -12.9730  -31.4880   56.8560 C   0  0  0  0  0  0  0  0  0  0  0  0
  -13.5040  -34.8100   55.7850 H   0  0  0  0  0  0  0  0  0  0  0  0
  -12.5090  -35.3080   58.0590 H   0  0  0  0  0  0  0  0  0  0  0  0
  -11.8060  -33.4080   59.5780 H   0  0  0  0  0  0  0  0  0  0  0  0
  -12.0970  -31.0090   58.8220 H   0  0  0  0  0  0  0  0  0  0  0  0
  -13.0920  -30.5100   56.5470 H   0  0  0  0  0  0  0  0  0  0  0  0
  -27.5370  -27.4410   55.2330 C   0  0  0  0  0  3  0  0  0  0  0  0
  -26.9710  -28.8300   55.2110 C   0  0  0  0  0  0  0  0  0  0  0  0
  -25.4860  -28.7270   55.3940 C   0  0  0  0  0  0  0  0  0  0  0  0
  -25.1340  -27.2750   55.5290 C   0  0  0  0  0  0  0  0  0  0  0  0
  -26.4020  -26.4800   55.4300 O   0  0  0  0  0  0  0  0  0  0  0  0
  -27.5080  -29.7020   55.0900 H   0  0  0  0  0  0  0  0  0  0  0  0
  -24.8220  -29.5170   55.4220 H   0  0  0  0  0  0  0  0  0  0  0  0
  -28.9850  -27.0770   55.0840 C   0  0  0  0  0  3  0  0  0  0  0  0
  -29.5270  -27.3820   54.2130 H   0  0  0  0  0  0  0  0  0  0  0  0
  -28.4940  -27.6420   54.3190 H   0  0  0  0  0  0  0  0  0  0  0  0
  -29.6730  -26.2850   56.1560 N   0  0  0  0  0  2  0  0  0  0  0  0
  -29.3360  -25.3520   56.3970 H   0  0  0  0  0  0  0  0  0  0  0  0
  -30.8570  -26.8640   56.8730 C   0  0  0  0  0  2  0  0  0  0  0  0
  -31.7810  -27.0050   56.3530 H   0  0  0  0  0  0  0  0  0  0  0  0
  -30.9380  -26.5910   55.8420 H   0  0  0  0  0  0  0  0  0  0  0  0
  -30.7430  -27.2470   58.3190 C   0  0  0  0  0  3  0  0  0  0  0  0
  -31.3660  -26.7720   59.0480 H   0  0  0  0  0  0  0  0  0  0  0  0
  -31.4470  -26.4990   58.0170 H   0  0  0  0  0  0  0  0  0  0  0  0
  -29.7570  -28.2950   58.7420 S   0  0  2  0  0  0  0  0  0  0  0  0
  -30.8350  -29.3340   58.6830 O   0  0  0  0  0  0  0  0  0  0  0  0
  -28.6780  -27.2540   58.8000 O   0  0  0  0  0  0  0  0  0  0  0  0
  -28.7700  -29.3410   59.1640 C   0  0  0  0  0  0  0  0  0  0  0  0
  -27.7500  -29.0730   59.3510 H   0  0  0  0  0  0  0  0  0  0  0  0
  -29.0840  -30.3570   59.2780 H   0  0  0  0  0  0  0  0  0  0  0  0
  -28.0650  -30.0890   59.4650 H   0  0  0  0  0  0  0  0  0  0  0  0
  1  2  1  0
  2 12  1  0
  2  3  2  0
  3 13  1  0
  4  5  1  0
  4  3  1  0
  6 14  1  0
  6  5  2  0
  7  6  1  0
  8  7  2  0
  8 10  1  0
  9  8  1  0
 10  4  2  0
 11 10  1  0
 11  1  2  0
 15  9  1  0
 16 11  1  0
 17  9  1  0
 17 22  1  0
 18 17  2  0
 19 18  1  0
 19 20  2  0
 20 21  1  0
 21 22  2  0
 21 26  1  0
 22 25  1  0
 23 18  1  0
 24 19  1  0
 26 29  1  0
 26 27  1  0
 28 26  1  0
 30 20  1  0
 30 31  1  0
 31 33  1  0
 31 34  1  0
 32 31  1  0
 34 35  2  0
 34 39  1  0
 35 36  1  0
 36 41  1  0
 36 37  2  0
 37 42  1  0
 38 37  1  0
 38 43  1  0
 39 38  2  0
 40 35  1  0
 44 39  1  0
 45 49  1  0
 46 45  2  0
 46 47  1  0
 47 51  1  0
 47 48  2  0
 48  1  1  0
 49 48  1  0
 50 46  1  0
 52 55  1  0
 53 52  1  0
 54 52  1  0
 55 56  1  0
 58 57  1  0
 59 57  1  0
 60 63  1  0
 60 61  1  0
 62 60  1  0
 63 65  2  0
 63 66  1  0
 64 63  2  0
 66 68  1  0
 66 67  1  0
 66 69  1  0
M  END
>  <minimizedAffinity>  (62) 
-11.0668421

$$$$

     RDKit          3D

 48 43  0  0  0  0  0  0  0  0999 V2000
  -17.4080  -32.0730   55.1560 C   0  0  0  0  0  2  0  0  0  0  0  0
  -17.5390  -33.2300   54.2100 O   0  0  0  0  0  1  0  0  0  0  0  0
  -18.4480  -30.9920   55.1670 N   0  0  0  0  0  0  0  0  0  0  0  0
  -19.6180  -31.0680   54.2330 C   0  0  0  0  0  0  0  0  0  0  0  0
  -19.8820  -32.1580   53.2360 N   0  0  0  0  0  0  0  0  0  0  0  0
  -21.1580  -31.8320   52.5180 N   0  0  0  0  0  0  0  0  0  0  0  0
  -21.6830  -30.5400   53.0700 C   0  0  0  0  0  0  0  0  0  0  0  0
  -22.9040  -29.7320   52.7450 N   0  0  0  0  0  0  0  0  0  0  0  0
  -23.1740  -28.4520   53.4800 N   0  0  0  0  0  0  0  0  0  0  0  0
  -22.2230  -27.9800   54.5390 C   0  0  0  0  0  0  0  0  0  0  0  0
  -21.0020  -28.7880   54.8640 C   0  0  0  0  0  0  0  0  0  0  0  0
  -20.7320  -30.0680   54.1300 C   0  0  0  0  0  0  0  0  0  0  0  0
  -18.3630  -30.2320   55.7880 H   0  0  0  0  0  0  0  0  0  0  0  0
  -21.5770  -32.3710   51.8080 H   0  0  0  0  0  0  0  0  0  0  0  0
  -20.3480  -28.4640   55.5930 H   0  0  0  0  0  0  0  0  0  0  0  0
  -13.8960  -31.8450   57.9610 N   0  0  0  0  0 15  0  0  0  0  0  0
  -15.1140  -32.6310   58.3460 C   0  0  0  0  0  2  0  0  0  0  0  0
  -16.2850  -32.7070   57.4110 C   0  0  0  0  0  2  0  0  0  0  0  0
  -16.2370  -31.9970   56.0910 C   0  0  0  0  0  1  0  0  0  0  0  0
  -15.0200  -31.2110   55.7050 C   0  0  0  0  0  2  0  0  0  0  0  0
  -13.8490  -31.1350   56.6400 C   0  0  0  0  0  2  0  0  0  0  0  0
  -15.1480  -33.1370   59.2880 H   0  0  0  0  0  0  0  0  0  0  0  0
  -15.9830  -33.1920   58.6210 H   0  0  0  0  0  0  0  0  0  0  0  0
  -17.1530  -33.2670   57.6860 H   0  0  0  0  0  0  0  0  0  0  0  0
  -17.1190  -32.7610   56.7450 H   0  0  0  0  0  0  0  0  0  0  0  0
  -16.2040  -31.4900   55.1490 H   0  0  0  0  0  0  0  0  0  0  0  0
  -14.9860  -30.7040   54.7630 H   0  0  0  0  0  0  0  0  0  0  0  0
  -14.1500  -30.6500   55.4300 H   0  0  0  0  0  0  0  0  0  0  0  0
  -12.9800  -30.5740   56.3650 H   0  0  0  0  0  0  0  0  0  0  0  0
  -13.0140  -31.0810   57.3080 H   0  0  0  0  0  0  0  0  0  0  0  0
  -12.7250  -31.7690   58.8950 C   0  0  0  0  0  3  0  0  0  0  0  0
  -11.7960  -32.2270   58.6280 H   0  0  0  0  0  0  0  0  0  0  0  0
  -12.6320  -32.2820   57.9610 H   0  0  0  0  0  0  0  0  0  0  0  0
  -12.8570  -31.0490   60.2050 C   0  0  0  0  0  0  0  0  0  0  0  0
  -13.7860  -30.5900   60.4730 H   0  0  0  0  0  0  0  0  0  0  0  0
  -12.0220  -30.9940   60.8720 H   0  0  0  0  0  0  0  0  0  0  0  0
  -12.9510  -30.5360   61.1390 H   0  0  0  0  0  0  0  0  0  0  0  0
  -22.4930  -26.7010   55.2740 C   0  0  0  0  0  0  0  0  0  0  0  0
  -23.9000  -26.3280   55.6380 C   0  0  0  0  0  0  0  0  0  0  0  0
  -24.1700  -25.0480   56.3730 C   0  0  0  0  0  0  0  0  0  0  0  0
  -23.0340  -24.1420   56.7430 C   0  0  0  0  0  0  0  0  0  0  0  0
  -21.6270  -24.5150   56.3790 C   0  0  0  0  0  0  0  0  0  0  0  0
  -20.4910  -23.6080   56.7490 F   0  0  0  0  0  0  0  0  0  0  0  0
  -21.3570  -25.7940   55.6440 C   0  0  0  0  0  0  0  0  0  0  0  0
  -19.9510  -26.1670   55.2800 F   0  0  0  0  0  0  0  0  0  0  0  0
  -24.6820  -26.9510   55.3830 H   0  0  0  0  0  0  0  0  0  0  0  0
  -25.1380  -24.7910   56.6230 H   0  0  0  0  0  0  0  0  0  0  0  0
  -23.2200  -23.2610   57.2480 H   0  0  0  0  0  0  0  0  0  0  0  0
  1  3  1  0
  2  1  1  0
  3 13  1  0
  4  3  1  0
  5  4  2  0
  6  7  1  0
  6  5  1  0
  7 12  1  0
  8  7  2  0
  8  9  1  0
  9 10  2  0
 10 11  1  0
 10 38  1  0
 11 15  1  0
 12  4  1  0
 12 11  2  0
 14  6  1  0
 17 23  1  0
 17 22  1  0
 18 24  1  0
 21 30  1  0
 25 18  1  0
 26 19  1  0
 27 20  1  0
 28 20  1  0
 29 21  1  0
 31 34  1  0
 32 31  1  0
 33 31  1  0
 34 35  1  0
 34 36  1  0
 34 37  1  0
 38 39  2  0
 38 44  1  0
 39 40  1  0
 40 47  1  0
 40 41  2  0
 41 48  1  0
 42 41  1  0
 42 43  1  0
 44 42  2  0
 45 44  1  0
 46 39  1  0
M  END
>  <minimizedAffinity>  (63) 
-9.7919035

$$$$

     RDKit          3D

 35 37  0  0  0  0  0  0  0  0999 V2000
  -21.1270  -29.0330   52.4960 O   0  0  0  0  0  0  0  0  0  0  0  0
  -19.8000  -29.6050   52.8960 C   0  0  0  0  0  0  0  0  0  0  0  0
  -18.7440  -30.1210   51.9630 N   0  0  0  0  0  0  0  0  0  0  0  0
  -17.5870  -30.5970   52.7900 C   0  0  0  0  0  0  0  0  0  0  0  0
  -16.3130  -31.1900   52.2660 O   0  0  0  0  0  0  0  0  0  0  0  0
  -17.9270  -30.3740   54.2340 C   0  0  0  0  0  0  0  0  0  0  0  0
  -19.2940  -29.7620   54.3000 C   0  0  0  0  0  0  0  0  0  0  0  0
  -18.8020  -30.1430   50.9810 H   0  0  0  0  0  0  0  0  0  0  0  0
  -17.0520  -30.7070   55.4070 C   0  0  0  0  0  0  0  0  0  0  0  0
  -15.8050  -29.9130   55.6610 C   0  0  0  0  0  0  0  0  0  0  0  0
  -14.9310  -30.2460   56.8340 C   0  0  0  0  0  0  0  0  0  0  0  0
  -15.3040  -31.3710   57.7520 C   0  0  0  0  0  0  0  0  0  0  0  0
  -14.4300  -31.7040   58.9250 Cl  0  0  0  0  0  0  0  0  0  0  0  0
  -16.5510  -32.1650   57.4980 C   0  0  0  0  0  0  0  0  0  0  0  0
  -17.4260  -31.8320   56.3260 C   0  0  0  0  0  0  0  0  0  0  0  0
  -15.5480  -29.1390   55.0290 H   0  0  0  0  0  0  0  0  0  0  0  0
  -14.0720  -29.7000   57.0090 H   0  0  0  0  0  0  0  0  0  0  0  0
  -16.8080  -32.9390   58.1300 H   0  0  0  0  0  0  0  0  0  0  0  0
  -18.2840  -32.3780   56.1510 H   0  0  0  0  0  0  0  0  0  0  0  0
  -20.0270  -29.3730   55.5490 N   0  0  0  0  0  0  0  0  0  0  0  0
  -20.2350  -30.0540   56.2300 H   0  0  0  0  0  0  0  0  0  0  0  0
  -20.4440  -27.9480   55.7630 C   0  0  0  0  0  0  0  0  0  0  0  0
  -19.4490  -26.9410   56.2580 C   0  0  0  0  0  0  0  0  0  0  0  0
  -19.8650  -25.5160   56.4710 C   0  0  0  0  0  0  0  0  0  0  0  0
  -21.2780  -25.0980   56.1900 C   0  0  0  0  0  0  0  0  0  0  0  0
  -21.6960  -23.6730   56.4030 Cl  0  0  0  0  0  0  0  0  0  0  0  0
  -22.2740  -26.1050   55.6950 C   0  0  0  0  0  0  0  0  0  0  0  0
  -21.8570  -27.5300   55.4810 C   0  0  0  0  0  0  0  0  0  0  0  0
  -18.4760  -27.2290   56.4520 H   0  0  0  0  0  0  0  0  0  0  0  0
  -19.1810  -24.8240   56.8120 H   0  0  0  0  0  0  0  0  0  0  0  0
  -22.5420  -28.2230   55.1410 H   0  0  0  0  0  0  0  0  0  0  0  0
  -23.6870  -25.6870   55.4130 C   0  0  0  0  0  0  0  0  0  0  0  0
  -24.7870  -26.0830   56.3520 O   0  0  0  0  0  0  0  0  0  0  0  0
  -24.0000  -24.8720   54.1930 O   0  0  0  0  0  0  0  0  0  0  0  0
  -23.3110  -24.6250   53.6070 H   0  0  0  0  0  0  0  0  0  0  0  0
  1  2  2  0
  2  7  1  0
  3  4  1  0
  3  2  1  0
  4  6  1  0
  5  4  2  0
  6  7  2  0
  6  9  1  0
  7 20  1  0
  8  3  1  0
  9 10  2  0
  9 15  1  0
 10 11  1  0
 11 17  1  0
 11 12  2  0
 12 13  1  0
 14 12  1  0
 14 18  1  0
 15 14  2  0
 16 10  1  0
 19 15  1  0
 20 22  1  0
 20 21  1  0
 22 23  1  0
 23 29  1  0
 23 24  2  0
 24 30  1  0
 25 26  1  0
 25 24  1  0
 27 25  2  0
 28 27  1  0
 28 22  2  0
 31 28  1  0
 32 27  1  0
 32 33  2  0
 34 32  1  0
 35 34  1  0
M  END
>  <minimizedAffinity>  (64) 
-8.38776588

$$$$

     RDKit          3D

 44 38  0  0  1  0  0  0  0  0999 V2000
  -23.8390  -26.0050   55.8650 C   0  0  0  0  0  0  0  0  0  0  0  0
  -23.7080  -24.5640   56.2610 C   0  0  0  0  0  0  0  0  0  0  0  0
  -22.2480  -24.2540   56.4130 N   0  0  0  0  0  0  0  0  0  0  0  0
  -21.4760  -25.5050   56.1100 N   0  0  0  0  0  0  0  0  0  0  0  0
  -20.0050  -25.7980   56.0990 N   0  0  0  0  0  0  0  0  0  0  0  0
  -19.5170  -27.1730   55.7490 C   0  0  0  0  0  0  0  0  0  0  0  0
  -18.0460  -27.4660   55.7380 N   0  0  0  0  0  1  0  0  0  0  0  0
  -17.0630  -26.3840   56.0760 C   0  0  0  0  0  2  0  0  0  0  0  0
  -15.5920  -26.6780   56.0650 C   0  0  0  0  0  2  0  0  0  0  0  0
  -15.1040  -28.0520   55.7160 O   0  0  0  0  0 15  0  0  0  0  0  0
  -16.0870  -29.1340   55.3780 C   0  0  0  0  0  2  0  0  0  0  0  0
  -17.5580  -28.8410   55.3890 C   0  0  0  0  0  2  0  0  0  0  0  0
  -20.5000  -28.2540   55.4110 C   0  0  0  0  0  0  0  0  0  0  0  0
  -21.9710  -27.9610   55.4220 C   0  0  0  0  0  0  0  0  0  0  0  0
  -22.4590  -26.5860   55.7720 C   0  0  0  0  0  0  0  0  0  0  0  0
  -24.4860  -23.9020   56.4040 H   0  0  0  0  0  0  0  0  0  0  0  0
  -17.4120  -25.4040   56.3260 H   0  0  0  0  0  0  0  0  0  0  0  0
  -16.3620  -25.6130   56.3180 H   0  0  0  0  0  0  0  0  0  0  0  0
  -14.8910  -25.9060   56.3060 H   0  0  0  0  0  0  0  0  0  0  0  0
  -14.5430  -26.8870   56.0570 H   0  0  0  0  0  0  0  0  0  0  0  0
  -15.7390  -30.1140   55.1280 H   0  0  0  0  0  0  0  0  0  0  0  0
  -16.7880  -29.9050   55.1360 H   0  0  0  0  0  0  0  0  0  0  0  0
  -18.2590  -29.6120   55.1480 H   0  0  0  0  0  0  0  0  0  0  0  0
  -18.6080  -28.6310   55.3970 H   0  0  0  0  0  0  0  0  0  0  0  0
  -20.1640  -29.2000   55.1710 H   0  0  0  0  0  0  0  0  0  0  0  0
  -22.6470  -28.7050   55.1900 H   0  0  0  0  0  0  0  0  0  0  0  0
  -26.3870  -28.7970   54.6580 C   0  0  0  0  0  0  0  0  0  0  0  0
  -25.1040  -28.0660   54.9150 C   0  0  0  0  0  0  0  0  0  0  0  0
  -25.1230  -26.7360   55.6080 C   0  0  0  0  0  3  0  0  0  0  0  0
  -26.4270  -26.1370   56.0440 N   0  0  0  0  0  0  0  0  0  0  0  0
  -27.7120  -26.8680   55.7870 C   0  0  0  0  0  0  0  0  0  0  0  0
  -29.0150  -26.2690   56.2230 N   0  0  0  0  0  2  0  0  0  0  0  0
  -27.6910  -28.1980   55.0940 N   0  0  0  0  0  0  0  0  0  0  0  0
  -26.3730  -29.7120   54.1800 H   0  0  0  0  0  0  0  0  0  0  0  0
  -24.2060  -28.4780   54.6150 H   0  0  0  0  0  0  0  0  0  0  0  0
  -29.0290  -25.3960   56.6780 H   0  0  0  0  0  0  0  0  0  0  0  0
  -30.3000  -27.0000   55.9660 C   0  0  0  0  0 15  0  0  0  0  0  0
  -31.2870  -28.0650   56.3420 C   0  0  0  0  0  2  0  0  0  0  0  0
  -31.5390  -27.2000   55.1440 C   0  0  0  0  0  3  0  0  0  0  0  0
  -31.2170  -27.5210   55.7820 H   0  0  0  0  0  0  0  0  0  0  0  0
  -31.5890  -28.8600   56.9920 H   0  0  0  0  0  0  0  0  0  0  0  0
  -32.2180  -28.4080   55.9440 H   0  0  0  0  0  0  0  0  0  0  0  0
  -32.1520  -26.9260   54.3110 H   0  0  0  0  0  0  0  0  0  0  0  0
  -31.0170  -26.3950   54.6680 H   0  0  0  0  0  0  0  0  0  0  0  0
  1  2  1  0
  2 16  1  0
  2  3  2  0
  4  3  1  0
  5  4  1  0
  6  5  2  0
  7  6  1  0
  8 18  1  0
  8 17  1  0
  9 19  1  0
 12 24  1  0
 13 14  2  0
 13  6  1  0
 14 15  1  0
 15  1  2  0
 15  4  1  0
 20  9  1  0
 21 11  1  0
 22 11  1  0
 23 12  1  0
 25 13  1  0
 26 14  1  0
 27 28  2  0
 27 33  1  0
 28 29  1  0
 29  1  1  0
 29 30  1  0
 31 30  2  0
 31 32  1  0
 32 36  1  0
 33 31  2  0
 34 27  1  0
 35 28  1  0
 38 41  1  0
 39 40  1  0
 42 38  1  0
 43 39  1  0
 44 39  1  0
M  END
>  <minimizedAffinity>  (65) 
-9.5175209

$$$$

     RDKit          3D

 37 39  0  0  0  0  0  0  0  0999 V2000
  -18.3200  -27.1970   55.1560 C   0  0  0  0  0  0  0  0  0  0  0  0
  -19.7860  -27.4080   54.9200 C   0  0  0  0  0  0  0  0  0  0  0  0
  -20.5370  -26.3850   55.7200 C   0  0  0  0  0  0  0  0  0  0  0  0
  -19.5340  -25.5410   56.4500 N   0  0  0  0  0  0  0  0  0  0  0  0
  -18.1640  -26.0430   56.1010 N   0  0  0  0  0  0  0  0  0  0  0  0
  -20.2050  -28.1310   54.3140 H   0  0  0  0  0  0  0  0  0  0  0  0
  -17.3120  -25.6790   56.4340 H   0  0  0  0  0  0  0  0  0  0  0  0
  -22.0270  -26.2320   55.7790 C   0  0  0  0  0  0  0  0  0  0  0  0
  -22.6310  -24.9300   56.2170 C   0  0  0  0  0  0  0  0  0  0  0  0
  -24.1220  -24.7770   56.2760 C   0  0  0  0  0  0  0  0  0  0  0  0
  -25.0090  -25.9260   55.8980 C   0  0  0  0  0  0  0  0  0  0  0  0
  -24.4060  -27.2260   55.4600 C   0  0  0  0  0  0  0  0  0  0  0  0
  -25.2930  -28.3750   55.0810 F   0  0  0  0  0  0  0  0  0  0  0  0
  -22.9140  -27.3800   55.4000 C   0  0  0  0  0  0  0  0  0  0  0  0
  -22.0200  -24.1400   56.4770 H   0  0  0  0  0  0  0  0  0  0  0  0
  -24.5370  -23.8820   56.5780 H   0  0  0  0  0  0  0  0  0  0  0  0
  -22.5000  -28.2760   55.0990 H   0  0  0  0  0  0  0  0  0  0  0  0
  -26.5000  -25.7720   55.9570 O   0  0  0  0  0  0  0  0  0  0  0  0
  -26.8770  -24.9590   56.2310 H   0  0  0  0  0  0  0  0  0  0  0  0
  -17.2060  -27.9990   54.5520 N   0  0  0  0  0  0  0  0  0  0  0  0
  -16.8080  -27.7230   53.6950 H   0  0  0  0  0  0  0  0  0  0  0  0
  -15.6790  -31.6710   56.6580 C   0  0  0  0  0  0  0  0  0  0  0  0
  -14.8390  -30.4300   56.6110 C   0  0  0  0  0  0  0  0  0  0  0  0
  -15.3480  -29.2060   55.9090 C   0  0  0  0  0  0  0  0  0  0  0  0
  -16.6970  -29.2230   55.2540 C   0  0  0  0  0  0  0  0  0  0  0  0
  -17.5370  -30.4650   55.3010 C   0  0  0  0  0  0  0  0  0  0  0  0
  -17.0280  -31.6890   56.0030 C   0  0  0  0  0  0  0  0  0  0  0  0
  -13.9100  -30.4170   57.0620 H   0  0  0  0  0  0  0  0  0  0  0  0
  -14.7690  -28.3510   55.8770 H   0  0  0  0  0  0  0  0  0  0  0  0
  -18.4650  -30.4770   54.8500 H   0  0  0  0  0  0  0  0  0  0  0  0
  -17.6070  -32.5430   56.0350 H   0  0  0  0  0  0  0  0  0  0  0  0
  -15.1700  -32.8950   57.3600 S   0  0  1  0  0  0  0  0  0  0  0  0
  -16.3210  -32.8230   58.3200 O   0  0  0  0  0  0  0  0  0  0  0  0
  -14.0200  -32.9680   56.4000 O   0  0  0  0  0  0  0  0  0  0  0  0
  -14.6610  -34.1190   58.0620 N   0  0  0  0  0  0  0  0  0  0  0  0
  -15.1660  -34.4930   58.8660 H   0  0  0  0  0  0  0  0  0  0  0  0
  -13.8110  -34.5780   57.7360 H   0  0  0  0  0  0  0  0  0  0  0  0
  1  5  1  0
  2  1  2  0
  2  3  1  0
  3  8  1  0
  3  4  2  0
  5  7  1  0
  5  4  1  0
  6  2  1  0
  8  9  1  0
  9 10  2  0
  9 15  1  0
 10 16  1  0
 11 18  1  0
 11 10  1  0
 12 11  2  0
 13 12  1  0
 14 12  1  0
 14  8  2  0
 17 14  1  0
 18 19  1  0
 20  1  1  0
 20 25  1  0
 21 20  1  0
 22 32  1  0
 23 22  1  0
 23 28  1  0
 24 23  2  0
 25 26  2  0
 25 24  1  0
 26 27  1  0
 27 31  1  0
 27 22  2  0
 29 24  1  0
 30 26  1  0
 32 35  1  0
 32 33  2  0
 34 32  2  0
 35 36  1  0
 37 35  1  0
M  END
>  <minimizedAffinity>  (66) 
-8.48264885

$$$$

     RDKit          3D

 38 40  0  0  0  0  0  0  0  0999 V2000
  -15.5280  -30.8700   56.6160 C   0  0  0  0  0  0  0  0  0  0  0  0
  -16.3830  -32.1020   56.5850 C   0  0  0  0  0  0  0  0  0  0  0  0
  -17.5670  -32.1710   55.6660 C   0  0  0  0  0  0  0  0  0  0  0  0
  -17.8950  -31.0080   54.7770 C   0  0  0  0  0  0  0  0  0  0  0  0
  -17.0400  -29.7760   54.8080 C   0  0  0  0  0  0  0  0  0  0  0  0
  -15.8570  -29.7060   55.7270 C   0  0  0  0  0  0  0  0  0  0  0  0
  -16.1570  -32.9020   57.1960 H   0  0  0  0  0  0  0  0  0  0  0  0
  -18.1550  -33.0190   55.6450 H   0  0  0  0  0  0  0  0  0  0  0  0
  -17.2660  -28.9750   54.1970 H   0  0  0  0  0  0  0  0  0  0  0  0
  -19.0780  -31.0770   53.8580 N   0  0  0  0  0  0  0  0  0  0  0  0
  -20.1390  -30.0180   53.9200 C   0  0  0  0  0  0  0  0  0  0  0  0
  -21.3730  -29.9540   53.0690 N   0  0  0  0  0  0  0  0  0  0  0  0
  -22.1480  -28.7340   53.4670 C   0  0  0  0  0  0  0  0  0  0  0  0
  -21.3940  -28.0430   54.5640 C   0  0  0  0  0  0  0  0  0  0  0  0
  -20.1520  -28.8360   54.8440 O   0  0  0  0  0  0  0  0  0  0  0  0
  -19.1590  -31.8170   53.2140 H   0  0  0  0  0  0  0  0  0  0  0  0
  -23.0430  -28.4240   53.0580 H   0  0  0  0  0  0  0  0  0  0  0  0
  -21.8090  -26.7800   55.2590 C   0  0  0  0  0  0  0  0  0  0  0  0
  -20.7880  -25.9490   55.9780 C   0  0  0  0  0  0  0  0  0  0  0  0
  -21.2030  -24.6860   56.6730 C   0  0  0  0  0  0  0  0  0  0  0  0
  -22.6380  -24.2540   56.6490 C   0  0  0  0  0  0  0  0  0  0  0  0
  -23.6600  -25.0850   55.9290 C   0  0  0  0  0  0  0  0  0  0  0  0
  -23.2440  -26.3480   55.2340 C   0  0  0  0  0  0  0  0  0  0  0  0
  -19.8000  -26.2470   55.9940 H   0  0  0  0  0  0  0  0  0  0  0  0
  -20.5000  -24.1150   57.1680 H   0  0  0  0  0  0  0  0  0  0  0  0
  -22.9240  -23.3850   57.1270 H   0  0  0  0  0  0  0  0  0  0  0  0
  -24.6480  -24.7870   55.9130 H   0  0  0  0  0  0  0  0  0  0  0  0
  -23.9480  -26.9180   54.7400 H   0  0  0  0  0  0  0  0  0  0  0  0
  -14.3450  -30.8010   57.5350 O   0  0  0  0  0  0  0  0  0  0  0  0
  -14.4880  -31.2030   58.9730 C   0  0  0  0  0  0  0  0  0  0  0  0
  -15.4340  -31.5390   59.3430 H   0  0  0  0  0  0  0  0  0  0  0  0
  -13.6440  -31.1530   59.6290 H   0  0  0  0  0  0  0  0  0  0  0  0
  -14.5900  -31.4900   59.9990 H   0  0  0  0  0  0  0  0  0  0  0  0
  -15.0020  -28.4740   55.7580 O   0  0  0  0  0  0  0  0  0  0  0  0
  -15.6420  -27.1180   55.7630 C   0  0  0  0  0  0  0  0  0  0  0  0
  -15.0320  -26.2380   55.7850 H   0  0  0  0  0  0  0  0  0  0  0  0
  -16.7080  -27.0290   55.7450 H   0  0  0  0  0  0  0  0  0  0  0  0
  -16.0980  -26.1490   55.7670 H   0  0  0  0  0  0  0  0  0  0  0  0
  1 29  1  0
  2  1  1  0
  2  7  1  0
  3  2  2  0
  4  5  2  0
  4  3  1  0
  5  6  1  0
  6 34  1  0
  6  1  2  0
  8  3  1  0
  9  5  1  0
 10 11  1  0
 10  4  1  0
 11 15  1  0
 12 13  1  0
 12 11  2  0
 13 14  2  0
 14 15  1  0
 14 18  1  0
 16 10  1  0
 17 13  1  0
 18 19  1  0
 19 24  1  0
 19 20  2  0
 20 25  1  0
 21 20  1  0
 21 26  1  0
 22 21  2  0
 23 18  2  0
 23 22  1  0
 27 22  1  0
 28 23  1  0
 29 30  1  0
 30 31  1  0
 30 32  1  0
 30 33  1  0
 34 35  1  0
 35 38  1  0
 35 36  1  0
 37 35  1  0
M  END
>  <minimizedAffinity>  (67) 
-7.43587828

$$$$

     RDKit          3D

 53 56  0  0  0  0  0  0  0  0999 V2000
  -19.3670  -30.0480   53.8710 C   0  0  0  0  0  0  0  0  0  0  0  0
  -18.6480  -31.1190   53.1060 C   0  0  0  0  0  0  0  0  0  0  0  0
  -17.7150  -32.0520   53.8190 C   0  0  0  0  0  0  0  0  0  0  0  0
  -17.5010  -31.9140   55.2970 C   0  0  0  0  0  0  0  0  0  0  0  0
  -18.2200  -30.8430   56.0620 C   0  0  0  0  0  0  0  0  0  0  0  0
  -19.1530  -29.9100   55.3490 C   0  0  0  0  0  0  0  0  0  0  0  0
  -18.7950  -31.2140   52.0890 H   0  0  0  0  0  0  0  0  0  0  0  0
  -17.2200  -32.7900   53.2930 H   0  0  0  0  0  0  0  0  0  0  0  0
  -18.0730  -30.7480   57.0800 H   0  0  0  0  0  0  0  0  0  0  0  0
  -19.6480  -29.1730   55.8750 H   0  0  0  0  0  0  0  0  0  0  0  0
  -16.5680  -32.8470   56.0110 N   0  0  0  0  0  0  0  0  0  0  0  0
  -15.2480  -32.3460   56.5170 C   0  0  0  0  0  0  0  0  0  0  0  0
  -14.8610  -30.9120   56.3110 O   0  0  0  0  0  0  0  0  0  0  0  0
  -14.3150  -33.2790   57.2310 N   0  0  0  0  0  0  0  0  0  0  0  0
  -16.8220  -33.7890   56.1460 H   0  0  0  0  0  0  0  0  0  0  0  0
  -14.5690  -34.2210   57.3660 H   0  0  0  0  0  0  0  0  0  0  0  0
  -12.9950  -32.7780   57.7370 C   0  0  0  0  0  0  0  0  0  0  0  0
  -12.9500  -31.8140   58.8850 C   0  0  0  0  0  0  0  0  0  0  0  0
  -11.6300  -31.3120   59.3920 C   0  0  0  0  0  0  0  0  0  0  0  0
  -10.3560  -31.7750   58.7500 C   0  0  0  0  0  0  0  0  0  0  0  0
  -10.4010  -32.7390   57.6020 C   0  0  0  0  0  0  0  0  0  0  0  0
  -11.7210  -33.2410   57.0960 C   0  0  0  0  0  0  0  0  0  0  0  0
  -11.7670  -34.2050   55.9470 F   0  0  0  0  0  0  0  0  0  0  0  0
  -13.8270  -31.4950   59.3270 H   0  0  0  0  0  0  0  0  0  0  0  0
   -9.4480  -31.4300   59.0990 H   0  0  0  0  0  0  0  0  0  0  0  0
   -9.5240  -33.0580   57.1610 H   0  0  0  0  0  0  0  0  0  0  0  0
  -11.5850  -30.3480   60.5400 C   0  0  0  0  0  0  0  0  0  0  0  0
  -11.5390  -29.3840   61.6880 F   0  0  0  0  0  0  0  0  0  0  0  0
  -13.0230  -30.6430   60.8450 F   0  0  0  0  0  0  0  0  0  0  0  0
  -10.1460  -30.0530   60.2350 F   0  0  0  0  0  0  0  0  0  0  0  0
  -20.3000  -29.1150   53.1580 S   0  0  0  0  0  0  0  0  0  0  0  0
  -27.9680  -26.7140   55.7960 C   0  0  0  0  0  0  0  0  0  0  0  0
  -27.7900  -27.8910   54.8840 O   0  0  0  0  0  0  0  0  0  0  0  0
  -26.7720  -25.9360   56.2590 N   0  0  0  0  0  0  0  0  0  0  0  0
  -25.3980  -26.3350   55.8100 C   0  0  0  0  0  0  0  0  0  0  0  0
  -24.1150  -25.6560   56.1890 N   0  0  0  0  0  0  0  0  0  0  0  0
  -22.9900  -26.3850   55.5160 C   0  0  0  0  0  0  0  0  0  0  0  0
  -21.5060  -26.1660   55.5240 C   0  0  0  0  0  0  0  0  0  0  0  0
  -20.6090  -27.0760   54.7380 C   0  0  0  0  0  0  0  0  0  0  0  0
  -21.1970  -28.2050   53.9440 C   0  0  0  0  0  0  0  0  0  0  0  0
  -22.6810  -28.4240   53.9360 C   0  0  0  0  0  0  0  0  0  0  0  0
  -23.5770  -27.5130   54.7220 C   0  0  0  0  0  0  0  0  0  0  0  0
  -25.0660  -27.4830   54.9040 N   0  0  0  0  0  0  0  0  0  0  0  0
  -26.8900  -25.1630   56.8590 H   0  0  0  0  0  0  0  0  0  0  0  0
  -21.1010  -25.3890   56.0700 H   0  0  0  0  0  0  0  0  0  0  0  0
  -19.5880  -26.9250   54.7430 H   0  0  0  0  0  0  0  0  0  0  0  0
  -23.0850  -29.2000   53.3890 H   0  0  0  0  0  0  0  0  0  0  0  0
  -25.7110  -28.1060   54.4990 H   0  0  0  0  0  0  0  0  0  0  0  0
  -29.3430  -26.3150   56.2460 O   0  0  0  0  0  0  0  0  0  0  0  0
  -30.4480  -27.3280   56.2670 C   0  0  0  0  0  0  0  0  0  0  0  0
  -30.2570  -28.3360   55.9620 H   0  0  0  0  0  0  0  0  0  0  0  0
  -31.4290  -27.0430   56.5880 H   0  0  0  0  0  0  0  0  0  0  0  0
  -31.2370  -28.0510   56.2820 H   0  0  0  0  0  0  0  0  0  0  0  0
  1  6  1  0
  2  3  1  0
  2  1  2  0
  3  4  2  0
  4 11  1  0
  4  5  1  0
  5  9  1  0
  6 10  1  0
  6  5  2  0
  7  2  1  0
  8  3  1  0
 11 15  1  0
 11 12  1  0
 12 14  1  0
 13 12  2  0
 14 16  1  0
 14 17  1  0
 17 18  1  0
 18 24  1  0
 18 19  2  0
 19 27  1  0
 20 25  1  0
 20 19  1  0
 21 20  2  0
 22 21  1  0
 22 17  2  0
 23 22  1  0
 26 21  1  0
 27 29  1  0
 27 28  1  0
 30 27  1  0
 31  1  1  0
 31 40  1  0
 32 49  1  0
 32 34  1  0
 33 32  2  0
 34 44  1  0
 35 36  2  0
 35 34  1  0
 37 38  1  0
 37 36  1  0
 38 45  1  0
 39 46  1  0
 39 38  2  0
 40 39  1  0
 41 40  2  0
 41 42  1  0
 42 43  1  0
 42 37  2  0
 43 35  1  0
 47 41  1  0
 48 43  1  0
 49 50  1  0
 50 53  1  0
 50 52  1  0
 51 50  1  0
M  END
>  <minimizedAffinity>  (68) 
-9.20761776

$$$$

     RDKit          3D

 57 59  0  0  1  0  0  0  0  0999 V2000
  -20.4690  -27.5100   55.3890 N   0  0  0  0  0  0  0  0  0  0  0  0
  -21.4340  -26.4190   55.7460 C   0  0  0  0  0  3  0  0  0  0  0  0
  -20.9220  -25.0690   56.1540 N   0  0  0  0  0  0  0  0  0  0  0  0
  -21.8870  -23.9780   56.5120 C   0  0  0  0  0  0  0  0  0  0  0  0
  -23.3640  -24.2360   56.4610 N   0  0  0  0  0  2  0  0  0  0  0  0
  -23.8760  -25.5860   56.0530 C   0  0  0  0  0  0  0  0  0  0  0  0
  -25.3520  -25.8440   56.0020 C   0  0  0  0  0  0  0  0  0  0  0  0
  -25.8640  -27.1940   55.5940 C   0  0  0  0  0  0  0  0  0  0  0  0
  -24.8990  -28.2850   55.2370 C   0  0  0  0  0  0  0  0  0  0  0  0
  -23.4220  -28.0270   55.2870 C   0  0  0  0  0  0  0  0  0  0  0  0
  -22.9110  -26.6770   55.6950 C   0  0  0  0  0  0  0  0  0  0  0  0
  -20.8040  -28.3960   55.1210 H   0  0  0  0  0  0  0  0  0  0  0  0
  -21.5350  -23.0490   56.7930 H   0  0  0  0  0  0  0  0  0  0  0  0
  -26.0160  -25.0930   56.2480 H   0  0  0  0  0  0  0  0  0  0  0  0
  -26.8800  -27.3710   55.5590 H   0  0  0  0  0  0  0  0  0  0  0  0
  -22.7580  -28.7780   55.0410 H   0  0  0  0  0  0  0  0  0  0  0  0
  -16.5610  -28.1330   55.6960 C   0  0  0  0  0  0  0  0  0  0  0  0
  -16.0390  -26.7350   55.5410 C   0  0  0  0  0  0  0  0  0  0  0  0
  -16.9930  -25.5960   55.3350 C   0  0  0  0  0  0  0  0  0  0  0  0
  -18.4690  -25.8540   55.2840 C   0  0  0  0  0  0  0  0  0  0  0  0
  -18.9920  -27.2520   55.4390 C   0  0  0  0  0  0  0  0  0  0  0  0
  -18.0380  -28.3910   55.6450 C   0  0  0  0  0  0  0  0  0  0  0  0
  -15.0230  -26.5570   55.5760 H   0  0  0  0  0  0  0  0  0  0  0  0
  -16.6330  -24.6350   55.2280 H   0  0  0  0  0  0  0  0  0  0  0  0
  -19.1260  -25.0710   55.1420 H   0  0  0  0  0  0  0  0  0  0  0  0
  -18.3980  -29.3520   55.7520 H   0  0  0  0  0  0  0  0  0  0  0  0
  -14.6530  -30.4110   56.1080 C   0  0  0  0  0  0  0  0  0  0  0  0
  -15.6070  -29.2720   55.9020 C   0  0  0  0  0  0  0  0  0  0  0  0
  -14.0210  -31.1650   56.2450 H   0  0  0  0  0  0  0  0  0  0  0  0
  -25.4110  -29.6350   54.8280 O   0  0  0  0  0  0  0  0  0  0  0  0
  -25.0490  -30.1990   53.4870 C   0  0  0  0  0  0  0  0  0  0  0  0
  -25.6570  -29.9810   52.6330 H   0  0  0  0  0  0  0  0  0  0  0  0
  -24.7920  -30.6020   52.5290 H   0  0  0  0  0  0  0  0  0  0  0  0
  -23.8360  -31.0700   53.3410 C   0  0  0  0  0  0  0  0  0  0  0  0
  -23.8510  -32.0740   53.7100 H   0  0  0  0  0  0  0  0  0  0  0  0
  -22.9710  -31.6910   53.2380 H   0  0  0  0  0  0  0  0  0  0  0  0
  -22.6030  -30.5320   52.6780 C   0  0  0  0  0  0  0  0  0  0  0  0
  -22.6880  -29.9230   51.8040 H   0  0  0  0  0  0  0  0  0  0  0  0
  -21.7230  -30.1490   52.2060 H   0  0  0  0  0  0  0  0  0  0  0  0
  -21.2500  -30.8500   53.2420 C   0  0  0  0  0  0  0  0  0  0  0  0
  -21.0980  -31.7550   53.7940 H   0  0  0  0  0  0  0  0  0  0  0  0
  -20.2840  -31.0770   53.6440 H   0  0  0  0  0  0  0  0  0  0  0  0
  -20.1080  -29.9010   53.0320 N   0  0  0  0  0  0  0  0  0  0  0  0
  -20.1350  -28.9700   53.4490 H   0  0  0  0  0  0  0  0  0  0  0  0
  -18.9260  -30.3190   52.2090 C   0  0  0  0  0  0  0  0  0  0  0  0
  -19.0520  -30.5570   51.1730 H   0  0  0  0  0  0  0  0  0  0  0  0
  -18.0820  -30.6170   51.6210 H   0  0  0  0  0  0  0  0  0  0  0  0
  -17.5660  -30.4040   52.8370 C   0  0  0  0  0  0  0  0  0  0  0  0
  -16.9870  -29.5160   52.9800 H   0  0  0  0  0  0  0  0  0  0  0  0
  -16.5960  -30.4640   53.2850 H   0  0  0  0  0  0  0  0  0  0  0  0
  -17.0200  -31.7330   53.2650 S   0  0  1  0  0  0  0  0  0  0  0  0
  -17.8860  -31.6950   54.4890 O   0  0  0  0  0  0  0  0  0  0  0  0
  -16.1530  -31.7710   52.0410 O   0  0  0  0  0  0  0  0  0  0  0  0
  -16.4730  -33.0630   53.6940 C   0  0  0  0  0  0  0  0  0  0  0  0
  -15.7430  -33.5600   53.0900 H   0  0  0  0  0  0  0  0  0  0  0  0
  -16.8130  -33.5130   54.6030 H   0  0  0  0  0  0  0  0  0  0  0  0
  -16.0830  -34.0110   53.9990 H   0  0  0  0  0  0  0  0  0  0  0  0
  1 21  1  0
  2  1  1  0
  2  3  1  0
  3  4  2  0
  4 13  1  0
  5  4  1  0
  6  5  1  0
  7  6  1  0
  7 14  1  0
  8  7  2  0
  9 10  2  0
  9  8  1  0
 10 11  1  0
 11  2  1  0
 11  6  2  0
 12  1  1  0
 15  8  1  0
 16 10  1  0
 17 28  1  0
 18 23  1  0
 18 17  2  0
 19 18  1  0
 20 19  2  0
 20 21  1  0
 21 22  2  0
 22 17  1  0
 22 26  1  0
 24 19  1  0
 25 20  1  0
 27 29  1  0
 28 27  3  0
 30  9  1  0
 31 30  1  0
 32 31  1  0
 33 31  1  0
 34 31  1  0
 34 35  1  0
 36 34  1  0
 37 40  1  0
 37 34  1  0
 38 37  1  0
 39 37  1  0
 40 42  1  0
 40 41  1  0
 43 40  1  0
 43 44  1  0
 45 48  1  0
 45 43  1  0
 46 45  1  0
 47 45  1  0
 48 49  1  0
 48 51  1  0
 48 50  1  0
 51 54  1  0
 51 52  2  0
 53 51  2  0
 54 57  1  0
 54 56  1  0
 55 54  1  0
M  END
>  <minimizedAffinity>  (69) 
-10.1145573

$$$$

     RDKit          3D

 37 39  0  0  0  0  0  0  0  0999 V2000
  -21.6710  -25.6910   56.0250 C   0  0  0  0  0  0  0  0  0  0  0  0
  -20.2690  -26.2240   56.0370 C   0  0  0  0  0  0  0  0  0  0  0  0
  -20.0060  -27.6530   55.6610 C   0  0  0  0  0  0  0  0  0  0  0  0
  -21.1450  -28.5480   55.2740 C   0  0  0  0  0  0  0  0  0  0  0  0
  -22.5470  -28.0150   55.2620 C   0  0  0  0  0  0  0  0  0  0  0  0
  -22.8100  -26.5870   55.6380 C   0  0  0  0  0  0  0  0  0  0  0  0
  -19.4840  -25.6080   56.3030 H   0  0  0  0  0  0  0  0  0  0  0  0
  -20.9650  -29.5310   55.0150 H   0  0  0  0  0  0  0  0  0  0  0  0
  -18.6040  -28.1860   55.6730 C   0  0  0  0  0  0  0  0  0  0  0  0
  -18.3640  -29.6660   55.6270 C   0  0  0  0  0  0  0  0  0  0  0  0
  -16.9620  -30.1990   55.6390 C   0  0  0  0  0  0  0  0  0  0  0  0
  -15.8000  -29.2520   55.6960 C   0  0  0  0  0  0  0  0  0  0  0  0
  -14.3980  -29.7850   55.7080 F   0  0  0  0  0  0  0  0  0  0  0  0
  -16.0400  -27.7720   55.7420 C   0  0  0  0  0  0  0  0  0  0  0  0
  -17.4420  -27.2390   55.7300 C   0  0  0  0  0  0  0  0  0  0  0  0
  -19.1630  -30.3170   55.5880 H   0  0  0  0  0  0  0  0  0  0  0  0
  -16.7970  -31.2170   55.6080 H   0  0  0  0  0  0  0  0  0  0  0  0
  -15.2400  -27.1200   55.7820 H   0  0  0  0  0  0  0  0  0  0  0  0
  -17.6070  -26.2210   55.7620 H   0  0  0  0  0  0  0  0  0  0  0  0
  -23.6870  -28.9100   54.8750 C   0  0  0  0  0  0  0  0  0  0  0  0
  -23.5560  -29.8220   53.6910 C   0  0  0  0  0  0  0  0  0  0  0  0
  -24.6950  -30.7170   53.3030 C   0  0  0  0  0  0  0  0  0  0  0  0
  -25.9660  -30.7010   54.1000 N   0  0  0  0  0  0  0  0  0  0  0  0
  -26.0970  -29.7890   55.2840 C   0  0  0  0  0  0  0  0  0  0  0  0
  -24.9580  -28.8940   55.6710 C   0  0  0  0  0  0  0  0  0  0  0  0
  -22.6810  -29.8330   53.1420 H   0  0  0  0  0  0  0  0  0  0  0  0
  -24.6050  -31.3440   52.4880 H   0  0  0  0  0  0  0  0  0  0  0  0
  -26.9710  -29.7780   55.8320 H   0  0  0  0  0  0  0  0  0  0  0  0
  -25.0480  -28.2670   56.4860 H   0  0  0  0  0  0  0  0  0  0  0  0
  -20.8150  -23.2630   56.3750 N   0  0  0  0  0  0  0  0  0  0  0  0
  -21.9330  -24.2630   56.4000 C   0  0  0  0  0  0  0  0  0  0  0  0
  -23.3130  -23.8350   56.8020 O   0  0  0  0  0  0  0  0  0  0  0  0
  -19.9090  -23.5440   56.1110 H   0  0  0  0  0  0  0  0  0  0  0  0
  -20.9880  -22.3260   56.6210 H   0  0  0  0  0  0  0  0  0  0  0  0
  -24.2120  -26.0540   55.6260 N   0  0  0  0  0  0  0  0  0  0  0  0
  -24.3840  -25.1170   55.8720 H   0  0  0  0  0  0  0  0  0  0  0  0
  -24.9600  -26.6410   55.3720 H   0  0  0  0  0  0  0  0  0  0  0  0
  1  2  1  0
  1 31  1  0
  2  7  1  0
  3  9  1  0
  3  2  2  0
  4  3  1  0
  5  4  2  0
  5  6  1  0
  6  1  2  0
  8  4  1  0
  9 15  1  0
 10 11  1  0
 10  9  2  0
 11 12  2  0
 12 13  1  0
 12 14  1  0
 14 18  1  0
 15 14  2  0
 15 19  1  0
 16 10  1  0
 17 11  1  0
 20  5  1  0
 20 25  1  0
 21 20  2  0
 22 21  1  0
 22 23  2  0
 23 24  1  0
 24 25  2  0
 24 28  1  0
 25 29  1  0
 26 21  1  0
 27 22  1  0
 30 31  1  0
 30 34  1  0
 31 32  2  0
 33 30  1  0
 35  6  1  0
 35 36  1  0
 37 35  1  0
M  END
>  <minimizedAffinity>  (70) 
-8.41146088

$$$$

     RDKit          3D

 38 41  0  0  0  0  0  0  0  0999 V2000
  -19.4420  -28.6870   54.9350 C   0  0  0  0  0  0  0  0  0  0  0  0
  -19.9090  -29.9570   54.2870 C   0  0  0  0  0  0  0  0  0  0  0  0
  -21.4080  -29.9300   54.2370 N   0  0  0  0  0  0  0  0  0  0  0  0
  -21.8680  -28.6420   54.8540 N   0  0  0  0  0  0  0  0  0  0  0  0
  -23.2360  -28.0690   55.0790 C   0  0  0  0  0  0  0  0  0  0  0  0
  -23.3890  -26.7280   55.7350 C   0  0  0  0  0  0  0  0  0  0  0  0
  -22.1740  -25.9610   56.1660 C   0  0  0  0  0  0  0  0  0  0  0  0
  -20.8060  -26.5340   55.9410 C   0  0  0  0  0  0  0  0  0  0  0  0
  -20.6530  -27.8740   55.2850 C   0  0  0  0  0  0  0  0  0  0  0  0
  -24.0710  -28.5970   54.7830 H   0  0  0  0  0  0  0  0  0  0  0  0
  -22.2800  -25.0390   56.6170 H   0  0  0  0  0  0  0  0  0  0  0  0
  -19.9710  -26.0060   56.2370 H   0  0  0  0  0  0  0  0  0  0  0  0
  -14.5230  -30.0280   55.9340 N   0  0  0  0  0  0  0  0  0  0  0  0
  -15.5560  -28.9690   55.6870 C   0  0  0  0  0  0  0  0  0  0  0  0
  -15.1630  -27.5220   55.6930 N   0  0  0  0  0  0  0  0  0  0  0  0
  -16.1960  -26.4630   55.4460 C   0  0  0  0  0  0  0  0  0  0  0  0
  -17.6220  -26.8520   55.1930 C   0  0  0  0  0  0  0  0  0  0  0  0
  -18.0160  -28.2990   55.1870 C   0  0  0  0  0  0  0  0  0  0  0  0
  -16.9830  -29.3580   55.4340 N   0  0  0  0  0  0  0  0  0  0  0  0
  -13.5860  -29.7730   56.1000 H   0  0  0  0  0  0  0  0  0  0  0  0
  -14.7810  -30.9780   55.9300 H   0  0  0  0  0  0  0  0  0  0  0  0
  -15.9260  -25.4670   55.4500 H   0  0  0  0  0  0  0  0  0  0  0  0
  -18.3340  -26.1230   55.0230 H   0  0  0  0  0  0  0  0  0  0  0  0
  -19.0310  -31.0620   53.7790 C   0  0  0  0  0  0  0  0  0  0  0  0
  -18.3120  -30.9070   52.4720 C   0  0  0  0  0  0  0  0  0  0  0  0
  -17.4340  -32.0120   51.9630 C   0  0  0  0  0  0  0  0  0  0  0  0
  -17.2740  -33.2710   52.7620 C   0  0  0  0  0  0  0  0  0  0  0  0
  -16.3960  -34.3760   52.2540 F   0  0  0  0  0  0  0  0  0  0  0  0
  -17.9930  -33.4260   54.0700 C   0  0  0  0  0  0  0  0  0  0  0  0
  -18.8710  -32.3210   54.5780 C   0  0  0  0  0  0  0  0  0  0  0  0
  -18.4220  -30.0410   51.9220 H   0  0  0  0  0  0  0  0  0  0  0  0
  -16.9400  -31.9050   51.0630 H   0  0  0  0  0  0  0  0  0  0  0  0
  -17.8830  -34.2930   54.6200 H   0  0  0  0  0  0  0  0  0  0  0  0
  -19.3660  -32.4280   55.4780 H   0  0  0  0  0  0  0  0  0  0  0  0
  -24.7570  -26.1550   55.9600 C   0  0  0  0  0  0  0  0  0  0  0  0
  -26.1250  -25.5830   56.1850 F   0  0  0  0  0  0  0  0  0  0  0  0
  -25.3720  -27.4260   55.4540 F   0  0  0  0  0  0  0  0  0  0  0  0
  -24.1410  -24.8850   56.4660 F   0  0  0  0  0  0  0  0  0  0  0  0
  1 18  1  0
  1  9  2  0
  2  1  1  0
  3  2  2  0
  3  4  1  0
  4  5  1  0
  4  9  1  0
  5  6  2  0
  6 35  1  0
  6  7  1  0
  7 11  1  0
  8  7  2  0
  8 12  1  0
  9  8  1  0
 10  5  1  0
 13 20  1  0
 14 15  2  0
 14 13  1  0
 16 22  1  0
 16 15  1  0
 17 16  2  0
 18 17  1  0
 18 19  2  0
 19 14  1  0
 21 13  1  0
 23 17  1  0
 24  2  1  0
 24 30  1  0
 25 24  2  0
 26 25  1  0
 26 27  2  0
 27 29  1  0
 28 27  1  0
 29 30  2  0
 29 33  1  0
 30 34  1  0
 31 25  1  0
 32 26  1  0
 35 36  1  0
 35 38  1  0
 37 35  1  0
M  END
>  <minimizedAffinity>  (71) 
-8.28582954

$$$$

     RDKit          3D

 53 56  0  0  0  0  0  0  0  0999 V2000
  -19.6280  -27.7540   54.9410 C   0  0  0  0  0  0  0  0  0  0  0  0
  -19.4550  -27.9450   53.4630 C   0  0  0  0  0  0  0  0  0  0  0  0
  -18.8770  -29.2240   52.9340 C   0  0  0  0  0  0  0  0  0  0  0  0
  -18.4710  -30.3130   53.8830 C   0  0  0  0  0  0  0  0  0  0  0  0
  -18.6440  -30.1220   55.3610 C   0  0  0  0  0  0  0  0  0  0  0  0
  -19.2220  -28.8430   55.8900 C   0  0  0  0  0  0  0  0  0  0  0  0
  -19.7340  -27.1960   52.8100 H   0  0  0  0  0  0  0  0  0  0  0  0
  -18.7580  -29.3550   51.9170 H   0  0  0  0  0  0  0  0  0  0  0  0
  -18.0740  -31.1920   53.5190 H   0  0  0  0  0  0  0  0  0  0  0  0
  -19.3410  -28.7120   56.9070 H   0  0  0  0  0  0  0  0  0  0  0  0
  -18.2380  -31.2110   56.3090 N   0  0  0  0  0  0  0  0  0  0  0  0
  -16.7980  -31.3700   56.6970 C   0  0  0  0  0  0  0  0  0  0  0  0
  -15.7630  -30.4400   56.1360 O   0  0  0  0  0  0  0  0  0  0  0  0
  -16.3920  -32.4580   57.6460 N   0  0  0  0  0  0  0  0  0  0  0  0
  -18.9170  -31.8210   56.6780 H   0  0  0  0  0  0  0  0  0  0  0  0
  -17.0710  -33.0690   58.0140 H   0  0  0  0  0  0  0  0  0  0  0  0
  -14.9520  -32.6170   58.0340 C   0  0  0  0  0  0  0  0  0  0  0  0
  -14.3090  -31.6220   58.9540 C   0  0  0  0  0  0  0  0  0  0  0  0
  -12.8690  -31.7810   59.3410 C   0  0  0  0  0  0  0  0  0  0  0  0
  -12.0720  -32.9350   58.8090 C   0  0  0  0  0  0  0  0  0  0  0  0
  -12.7150  -33.9300   57.8890 C   0  0  0  0  0  0  0  0  0  0  0  0
  -14.1550  -33.7710   57.5010 C   0  0  0  0  0  0  0  0  0  0  0  0
  -14.7980  -34.7660   56.5810 F   0  0  0  0  0  0  0  0  0  0  0  0
  -14.8570  -30.8280   59.3200 H   0  0  0  0  0  0  0  0  0  0  0  0
  -11.0810  -33.0450   59.0760 H   0  0  0  0  0  0  0  0  0  0  0  0
  -12.1660  -34.7240   57.5230 H   0  0  0  0  0  0  0  0  0  0  0  0
  -12.2250  -30.7860   60.2610 C   0  0  0  0  0  0  0  0  0  0  0  0
  -11.5820  -29.7920   61.1810 F   0  0  0  0  0  0  0  0  0  0  0  0
  -13.5650  -30.4730   60.8580 F   0  0  0  0  0  0  0  0  0  0  0  0
  -10.8860  -31.1000   59.6640 F   0  0  0  0  0  0  0  0  0  0  0  0
  -20.2060  -26.4750   55.4700 O   0  0  0  0  0  0  0  0  0  0  0  0
  -29.0680  -27.3160   55.7550 C   0  0  0  0  0  0  0  0  0  0  0  0
  -28.8790  -25.9130   56.2510 O   0  0  0  0  0  0  0  0  0  0  0  0
  -27.8750  -28.1440   55.3770 N   0  0  0  0  0  0  0  0  0  0  0  0
  -26.4950  -27.5680   55.4930 C   0  0  0  0  0  0  0  0  0  0  0  0
  -25.2150  -28.2730   55.1530 N   0  0  0  0  0  0  0  0  0  0  0  0
  -24.0810  -27.3270   55.4200 C   0  0  0  0  0  0  0  0  0  0  0  0
  -22.5960  -27.4720   55.2680 C   0  0  0  0  0  0  0  0  0  0  0  0
  -21.6910  -26.3300   55.6210 C   0  0  0  0  0  0  0  0  0  0  0  0
  -22.2710  -25.0420   56.1260 C   0  0  0  0  0  0  0  0  0  0  0  0
  -23.7560  -24.8960   56.2780 C   0  0  0  0  0  0  0  0  0  0  0  0
  -24.6610  -26.0390   55.9240 C   0  0  0  0  0  0  0  0  0  0  0  0
  -26.1540  -26.1880   55.9700 N   0  0  0  0  0  0  0  0  0  0  0  0
  -27.9990  -29.0660   55.0510 H   0  0  0  0  0  0  0  0  0  0  0  0
  -22.1970  -28.3590   54.9210 H   0  0  0  0  0  0  0  0  0  0  0  0
  -21.6470  -24.2560   56.3690 H   0  0  0  0  0  0  0  0  0  0  0  0
  -24.1550  -24.0100   56.6250 H   0  0  0  0  0  0  0  0  0  0  0  0
  -26.7950  -25.5010   56.2610 H   0  0  0  0  0  0  0  0  0  0  0  0
  -30.4480  -27.8920   55.6390 O   0  0  0  0  0  0  0  0  0  0  0  0
  -31.6090  -26.9970   55.3210 C   0  0  0  0  0  0  0  0  0  0  0  0
  -31.4530  -25.9480   55.1770 H   0  0  0  0  0  0  0  0  0  0  0  0
  -32.5940  -27.4080   55.2380 H   0  0  0  0  0  0  0  0  0  0  0  0
  -32.4380  -26.3590   55.0940 H   0  0  0  0  0  0  0  0  0  0  0  0
  1 31  1  0
  1  6  1  0
  2  1  2  0
  3  2  1  0
  3  4  2  0
  4  5  1  0
  5  6  2  0
  5 11  1  0
  6 10  1  0
  7  2  1  0
  8  3  1  0
  9  4  1  0
 11 15  1  0
 11 12  1  0
 12 14  1  0
 13 12  2  0
 14 16  1  0
 14 17  1  0
 17 18  1  0
 18 24  1  0
 18 19  2  0
 19 27  1  0
 20 25  1  0
 20 19  1  0
 21 20  2  0
 22 21  1  0
 22 17  2  0
 23 22  1  0
 26 21  1  0
 27 29  1  0
 27 28  1  0
 30 27  1  0
 31 39  1  0
 32 33  2  0
 34 35  1  0
 34 32  1  0
 35 43  1  0
 36 37  1  0
 36 35  2  0
 37 42  1  0
 38 37  2  0
 38 39  1  0
 39 40  2  0
 40 41  1  0
 40 46  1  0
 41 47  1  0
 42 43  1  0
 42 41  2  0
 43 48  1  0
 44 34  1  0
 45 38  1  0
 49 32  1  0
 50 49  1  0
 51 50  1  0
 52 50  1  0
 53 50  1  0
M  END
>  <minimizedAffinity>  (72) 
-9.83971119

$$$$

     RDKit          3D

 60 61  0  0  0  0  0  0  0  0999 V2000
  -19.0720  -27.0050   55.2620 C   0  0  0  0  0  0  0  0  0  0  0  0
  -19.7260  -27.5630   54.0320 C   0  0  0  0  0  0  0  0  0  0  0  0
  -19.0350  -28.6270   53.2330 C   0  0  0  0  0  0  0  0  0  0  0  0
  -17.6900  -29.1340   53.6620 C   0  0  0  0  0  0  0  0  0  0  0  0
  -17.0360  -28.5760   54.8920 C   0  0  0  0  0  0  0  0  0  0  0  0
  -17.7270  -27.5120   55.6910 C   0  0  0  0  0  0  0  0  0  0  0  0
  -20.6510  -27.2140   53.7370 H   0  0  0  0  0  0  0  0  0  0  0  0
  -19.4850  -29.0110   52.3870 H   0  0  0  0  0  0  0  0  0  0  0  0
  -17.2140  -29.8660   53.1120 H   0  0  0  0  0  0  0  0  0  0  0  0
  -17.2770  -27.1280   56.5370 H   0  0  0  0  0  0  0  0  0  0  0  0
  -15.6910  -29.0830   55.3210 N   0  0  0  0  0  0  0  0  0  0  0  0
  -15.5830  -30.3740   56.0780 C   0  0  0  0  0  0  0  0  0  0  0  0
  -16.8190  -31.1570   56.4050 O   0  0  0  0  0  0  0  0  0  0  0  0
  -14.8800  -28.5690   55.1070 H   0  0  0  0  0  0  0  0  0  0  0  0
  -14.2380  -30.8810   56.5080 C   0  0  0  0  0  0  0  0  0  0  0  0
  -13.1530  -31.0830   55.4920 C   0  0  0  0  0  0  0  0  0  0  0  0
  -11.8090  -31.5900   55.9210 C   0  0  0  0  0  0  0  0  0  0  0  0
  -11.5480  -31.8940   57.3670 C   0  0  0  0  0  0  0  0  0  0  0  0
  -12.6330  -31.6920   58.3830 C   0  0  0  0  0  0  0  0  0  0  0  0
  -13.9780  -31.1850   57.9530 C   0  0  0  0  0  0  0  0  0  0  0  0
  -13.3320  -30.8740   54.4970 H   0  0  0  0  0  0  0  0  0  0  0  0
  -11.0620  -31.7300   55.2220 H   0  0  0  0  0  0  0  0  0  0  0  0
  -12.4540  -31.9010   59.3770 H   0  0  0  0  0  0  0  0  0  0  0  0
  -14.7230  -31.0450   58.6520 H   0  0  0  0  0  0  0  0  0  0  0  0
  -10.2040  -32.4010   57.7960 N   0  0  0  0  0  0  0  0  0  0  0  0
   -9.6290  -33.6330   57.1620 C   0  0  0  0  0  0  0  0  0  0  0  0
  -10.1770  -34.1510   56.4030 H   0  0  0  0  0  0  0  0  0  0  0  0
   -8.6690  -33.9950   57.4690 H   0  0  0  0  0  0  0  0  0  0  0  0
   -9.2180  -34.5120   56.7100 H   0  0  0  0  0  0  0  0  0  0  0  0
   -9.4340  -31.6760   58.8600 C   0  0  0  0  0  0  0  0  0  0  0  0
   -8.4740  -32.0380   59.1670 H   0  0  0  0  0  0  0  0  0  0  0  0
   -9.8430  -30.7980   59.3130 H   0  0  0  0  0  0  0  0  0  0  0  0
   -8.8840  -31.1590   59.6190 H   0  0  0  0  0  0  0  0  0  0  0  0
  -19.7620  -25.9410   56.0620 O   0  0  0  0  0  0  0  0  0  0  0  0
  -24.6420  -27.9640   55.3390 N   0  0  0  0  0 15  0  0  0  0  0  0
  -25.9760  -27.3000   55.5130 C   0  0  0  0  0  2  0  0  0  0  0  0
  -25.7370  -25.8860   55.9510 N   0  0  0  0  0  2  0  0  0  0  0  0
  -24.2540  -25.6750   56.0470 C   0  0  0  0  0  0  0  0  0  0  0  0
  -23.4340  -24.4790   56.4300 C   0  0  0  0  0  3  0  0  0  0  0  0
  -21.9360  -24.5680   56.4350 N   0  0  0  0  0  0  0  0  0  0  0  0
  -21.2600  -25.8520   56.0570 C   0  0  0  0  0  0  0  0  0  0  0  0
  -22.0810  -27.0480   55.6740 C   0  0  0  0  0  3  0  0  0  0  0  0
  -23.5780  -26.9590   55.6690 C   0  0  0  0  0  3  0  0  0  0  0  0
  -23.8990  -23.5960   56.6910 H   0  0  0  0  0  0  0  0  0  0  0  0
  -21.6150  -27.9310   55.4130 H   0  0  0  0  0  0  0  0  0  0  0  0
  -27.3140  -27.9400   55.2890 C   0  0  0  0  0  0  0  0  0  0  0  0
  -27.7010  -28.7860   54.1120 N   0  0  0  0  0  0  0  0  0  0  0  0
  -29.1270  -29.2140   54.2990 O   0  0  0  0  0  0  0  0  0  0  0  0
  -29.6210  -28.6320   55.5900 N   0  0  0  0  0  0  0  0  0  0  0  0
  -28.5010  -27.8440   56.2030 C   0  0  0  0  0  0  0  0  0  0  0  0
  -28.5570  -27.0940   57.4990 N   0  0  0  0  0  0  0  0  0  0  0  0
  -27.7650  -26.6040   57.8200 H   0  0  0  0  0  0  0  0  0  0  0  0
  -29.3850  -27.0900   58.0310 H   0  0  0  0  0  0  0  0  0  0  0  0
  -24.4120  -29.3820   54.9100 C   0  0  0  0  0  3  0  0  0  0  0  0
  -24.5620  -30.1830   55.6040 H   0  0  0  0  0  0  0  0  0  0  0  0
  -24.7260  -29.1700   55.9100 H   0  0  0  0  0  0  0  0  0  0  0  0
  -23.9710  -29.6810   53.5070 C   0  0  0  0  0  0  0  0  0  0  0  0
  -23.8220  -28.8800   52.8130 H   0  0  0  0  0  0  0  0  0  0  0  0
  -23.8070  -30.6920   53.2010 H   0  0  0  0  0  0  0  0  0  0  0  0
  -23.6570  -29.8930   52.5070 H   0  0  0  0  0  0  0  0  0  0  0  0
  1  6  1  0
  1 34  1  0
  2  1  2  0
  3  4  2  0
  3  2  1  0
  4  5  1  0
  5 11  1  0
  5  6  2  0
  6 10  1  0
  7  2  1  0
  8  3  1  0
  9  4  1  0
 11 12  1  0
 12 13  2  0
 12 15  1  0
 14 11  1  0
 15 20  1  0
 16 17  1  0
 16 15  2  0
 17 18  2  0
 18 25  1  0
 18 19  1  0
 19 23  1  0
 20 19  2  0
 20 24  1  0
 21 16  1  0
 22 17  1  0
 25 30  1  0
 26 28  1  0
 26 25  1  0
 27 26  1  0
 29 26  1  0
 30 31  1  0
 30 32  1  0
 30 33  1  0
 36 37  1  0
 37 38  1  0
 38 39  1  0
 39 40  1  0
 39 44  1  0
 41 34  1  0
 41 40  2  0
 42 41  1  0
 43 42  1  0
 43 38  2  0
 45 42  1  0
 46 36  1  0
 46 50  1  0
 47 48  1  0
 47 46  2  0
 48 49  1  0
 49 50  2  0
 50 51  1  0
 51 52  1  0
 51 53  1  0
 54 55  1  0
 54 56  1  0
 57 54  1  0
 58 57  1  0
 59 57  1  0
 60 57  1  0
M  END
>  <minimizedAffinity>  (73) 
-9.32835865

$$$$

     RDKit          3D

 57 55  0  0  0  0  0  0  0  0999 V2000
  -20.2600  -27.3900   55.9530 C   0  0  0  0  0  0  0  0  0  0  0  0
  -18.9000  -26.7770   55.7900 C   0  0  0  0  0  0  0  0  0  0  0  0
  -17.6890  -27.6560   55.6990 C   0  0  0  0  0  0  0  0  0  0  0  0
  -17.8350  -29.1470   55.7700 C   0  0  0  0  0  0  0  0  0  0  0  0
  -19.1950  -29.7600   55.9330 C   0  0  0  0  0  0  0  0  0  0  0  0
  -20.4070  -28.8810   56.0240 C   0  0  0  0  0  0  0  0  0  0  0  0
  -18.8000  -25.7520   55.7410 H   0  0  0  0  0  0  0  0  0  0  0  0
  -16.7530  -27.2340   55.5870 H   0  0  0  0  0  0  0  0  0  0  0  0
  -19.2960  -30.7850   55.9820 H   0  0  0  0  0  0  0  0  0  0  0  0
  -21.3420  -29.3030   56.1360 H   0  0  0  0  0  0  0  0  0  0  0  0
  -24.0440  -26.1990   55.8470 C   0  0  0  0  0  0  0  0  0  0  0  0
  -23.8970  -24.7550   56.2260 C   0  0  0  0  0  0  0  0  0  0  0  0
  -22.5380  -24.1890   56.5140 C   0  0  0  0  0  0  0  0  0  0  0  0
  -21.3260  -25.0680   56.4230 N   0  0  0  0  0  0  0  0  0  0  0  0
  -21.4730  -26.5120   56.0440 C   0  0  0  0  0  0  0  0  0  0  0  0
  -22.8320  -27.0770   55.7550 C   0  0  0  0  0  0  0  0  0  0  0  0
  -24.7320  -24.1500   56.2890 H   0  0  0  0  0  0  0  0  0  0  0  0
  -22.4380  -23.1960   56.7750 H   0  0  0  0  0  0  0  0  0  0  0  0
  -22.9330  -28.0700   55.4940 H   0  0  0  0  0  0  0  0  0  0  0  0
  -25.6940  -27.9770   54.7240 C   0  0  0  0  0  0  0  0  0  0  0  0
  -27.1800  -28.1800   54.7030 N   0  0  0  0  0  0  0  0  0  0  0  0
  -27.8070  -27.0930   55.5240 N   0  0  0  0  0  0  0  0  0  0  0  0
  -26.7090  -26.2180   56.0520 C   0  0  0  0  0  0  0  0  0  0  0  0
  -25.4030  -26.7640   55.5580 C   0  0  0  0  0  0  0  0  0  0  0  0
  -28.7710  -26.9740   55.6880 H   0  0  0  0  0  0  0  0  0  0  0  0
  -26.8310  -25.3860   56.6510 H   0  0  0  0  0  0  0  0  0  0  0  0
  -22.6430  -30.5540   52.6500 C   0  0  0  0  0  0  0  0  0  0  0  0
  -23.6520  -31.1780   53.5680 C   0  0  0  0  0  0  0  0  0  0  0  0
  -24.6690  -30.3190   54.2600 C   0  0  0  0  0  0  0  0  0  0  0  0
  -24.6770  -28.8360   54.0330 C   0  0  0  0  0  0  0  0  0  0  0  0
  -23.6680  -28.2130   53.1140 N   0  0  0  0  0  0  0  0  0  0  0  0
  -22.6520  -29.0720   52.4230 C   0  0  0  0  0  0  0  0  0  0  0  0
  -21.9440  -31.1450   52.1740 H   0  0  0  0  0  0  0  0  0  0  0  0
  -23.6460  -32.1980   53.7240 H   0  0  0  0  0  0  0  0  0  0  0  0
  -25.3630  -30.7480   54.8920 H   0  0  0  0  0  0  0  0  0  0  0  0
  -21.9580  -28.6420   51.7900 H   0  0  0  0  0  0  0  0  0  0  0  0
  -16.6230  -30.0260   55.6790 O   0  0  0  0  0  0  0  0  0  0  0  0
  -16.7450  -31.5000   55.9290 C   0  0  0  0  0  0  0  0  0  0  0  0
  -16.9060  -32.1690   55.1100 H   0  0  0  0  0  0  0  0  0  0  0  0
  -16.8320  -32.5520   56.1070 H   0  0  0  0  0  0  0  0  0  0  0  0
  -16.6420  -32.0360   57.3260 C   0  0  0  0  0  0  0  0  0  0  0  0
  -17.5250  -32.1620   57.9170 H   0  0  0  0  0  0  0  0  0  0  0  0
  -16.5680  -32.4180   58.3230 H   0  0  0  0  0  0  0  0  0  0  0  0
  -15.3020  -32.3940   57.8950 N   0  0  0  0  0  1  0  0  0  0  0  0
  -14.6740  -33.7160   57.5590 C   0  0  0  0  0  2  0  0  0  0  0  0
  -13.3330  -34.0740   58.1290 C   0  0  0  0  0  2  0  0  0  0  0  0
  -12.6210  -33.1130   59.0330 O   0  0  0  0  0 15  0  0  0  0  0  0
  -13.2490  -31.7930   59.3680 C   0  0  0  0  0  2  0  0  0  0  0  0
  -14.5880  -31.4340   58.7990 C   0  0  0  0  0  2  0  0  0  0  0  0
  -15.1820  -34.4000   56.9140 H   0  0  0  0  0  0  0  0  0  0  0  0
  -14.2260  -34.6570   57.3200 H   0  0  0  0  0  0  0  0  0  0  0  0
  -12.8850  -35.0170   57.8890 H   0  0  0  0  0  0  0  0  0  0  0  0
  -12.3770  -34.3310   58.5340 H   0  0  0  0  0  0  0  0  0  0  0  0
  -12.7390  -31.1070   60.0140 H   0  0  0  0  0  0  0  0  0  0  0  0
  -13.6960  -30.8510   59.6080 H   0  0  0  0  0  0  0  0  0  0  0  0
  -15.0370  -30.4920   59.0390 H   0  0  0  0  0  0  0  0  0  0  0  0
  -15.5450  -31.1770   58.3930 H   0  0  0  0  0  0  0  0  0  0  0  0
  1  6  1  0
  1 15  1  0
  2  1  2  0
  3  4  2  0
  3  2  1  0
  4  5  1  0
  5  9  1  0
  5  6  2  0
  6 10  1  0
  7  2  1  0
  8  3  1  0
 11 12  1  0
 12 17  1  0
 12 13  2  0
 13 18  1  0
 14 13  1  0
 15 14  2  0
 16 11  2  0
 16 15  1  0
 19 16  1  0
 20 24  1  0
 21 20  2  0
 21 22  1  0
 22 25  1  0
 22 23  1  0
 23 26  1  0
 24 11  1  0
 24 23  2  0
 27 28  1  0
 28 34  1  0
 28 29  2  0
 29 35  1  0
 30 29  1  0
 30 20  1  0
 31 30  2  0
 32 27  2  0
 32 31  1  0
 33 27  1  0
 36 32  1  0
 37  4  1  0
 37 38  1  0
 38 40  1  0
 38 41  1  0
 39 38  1  0
 41 44  1  0
 41 42  1  0
 41 43  1  0
 46 53  1  0
 48 55  1  0
 48 54  1  0
 49 56  1  0
 50 45  1  0
 51 45  1  0
 52 46  1  0
 57 49  1  0
M  END
>  <minimizedAffinity>  (74) 
-10.6506348

$$$$

     RDKit          3D

 57 56  0  0  0  0  0  0  0  0999 V2000
  -18.2890  -31.5010   55.1390 C   0  0  0  0  0  0  0  0  0  0  0  0
  -17.3000  -32.4830   55.6940 C   0  0  0  0  0  0  0  0  0  0  0  0
  -17.7470  -33.8610   55.3070 N   0  0  0  0  0  0  0  0  0  0  0  0
  -19.0130  -33.7310   54.5130 C   0  0  0  0  0  0  0  0  0  0  0  0
  -19.3480  -32.2730   54.4090 N   0  0  0  0  0  0  0  0  0  0  0  0
  -19.5590  -34.5090   54.1090 H   0  0  0  0  0  0  0  0  0  0  0  0
  -20.5330  -31.6880   53.7000 C   0  0  0  0  0  2  0  0  0  0  0  0
  -20.3380  -30.6120   52.6740 C   0  0  0  0  0  2  0  0  0  0  0  0
  -21.5240  -30.0270   51.9650 C   0  0  0  0  0  2  0  0  0  0  0  0
  -22.9050  -30.5200   52.2830 N   0  0  0  0  0  0  0  0  0  0  0  0
  -23.1010  -31.5960   53.3090 C   0  0  0  0  0  0  0  0  0  0  0  0
  -21.9150  -32.1810   54.0180 C   0  0  0  0  0  2  0  0  0  0  0  0
  -21.3800  -31.2720   53.1950 H   0  0  0  0  0  0  0  0  0  0  0  0
  -19.3530  -30.2610   52.4470 H   0  0  0  0  0  0  0  0  0  0  0  0
  -20.1990  -29.8440   51.9410 H   0  0  0  0  0  0  0  0  0  0  0  0
  -21.3850  -29.2600   51.2330 H   0  0  0  0  0  0  0  0  0  0  0  0
  -22.3700  -29.6110   51.4600 H   0  0  0  0  0  0  0  0  0  0  0  0
  -23.7110  -30.1220   51.8010 H   0  0  0  0  0  0  0  0  0  0  0  0
  -24.0860  -31.9470   53.5350 H   0  0  0  0  0  0  0  0  0  0  0  0
  -23.2400  -32.3640   54.0410 H   0  0  0  0  0  0  0  0  0  0  0  0
  -22.0540  -32.9480   54.7490 H   0  0  0  0  0  0  0  0  0  0  0  0
  -21.0680  -32.5970   54.5230 H   0  0  0  0  0  0  0  0  0  0  0  0
  -16.0770  -32.1450   56.4950 C   0  0  0  0  0  0  0  0  0  0  0  0
  -16.1540  -32.0870   57.9920 C   0  0  0  0  0  0  0  0  0  0  0  0
  -14.9320  -31.7490   58.7930 C   0  0  0  0  0  0  0  0  0  0  0  0
  -13.6330  -31.4700   58.0980 C   0  0  0  0  0  0  0  0  0  0  0  0
  -12.4110  -31.1320   58.9000 F   0  0  0  0  0  0  0  0  0  0  0  0
  -13.5560  -31.5280   56.6010 C   0  0  0  0  0  0  0  0  0  0  0  0
  -14.7780  -31.8660   55.8000 C   0  0  0  0  0  0  0  0  0  0  0  0
  -17.0480  -32.2790   58.4700 H   0  0  0  0  0  0  0  0  0  0  0  0
  -14.9860  -31.7090   59.8230 H   0  0  0  0  0  0  0  0  0  0  0  0
  -12.6620  -31.3360   56.1230 H   0  0  0  0  0  0  0  0  0  0  0  0
  -14.7240  -31.9060   54.7700 H   0  0  0  0  0  0  0  0  0  0  0  0
  -19.3090  -27.7820   56.0770 C   0  0  0  0  0  0  0  0  0  0  0  0
  -18.1100  -27.0270   55.5850 N   0  0  0  0  0  0  0  0  0  0  0  0
  -16.9700  -27.7630   54.9450 C   0  0  0  0  0  3  0  0  0  0  0  0
  -17.0300  -29.2540   54.7960 C   0  0  0  0  0  0  0  0  0  0  0  0
  -18.2290  -30.0100   55.2880 C   0  0  0  0  0  0  0  0  0  0  0  0
  -19.3680  -29.2740   55.9280 N   0  0  0  0  0  0  0  0  0  0  0  0
  -16.1450  -27.2430   54.6060 H   0  0  0  0  0  0  0  0  0  0  0  0
  -16.2460  -29.7610   54.3550 H   0  0  0  0  0  0  0  0  0  0  0  0
  -20.4480  -27.0460   56.7170 O   0  0  0  0  0  0  0  0  0  0  0  0
  -22.3920  -25.4930   55.9710 C   0  0  0  0  0  0  0  0  0  0  0  0
  -23.6700  -25.2830   55.2140 C   0  0  0  0  0  0  0  0  0  0  0  0
  -24.2800  -26.4160   54.4440 C   0  0  0  0  0  0  0  0  0  0  0  0
  -23.6130  -27.7600   54.4320 C   0  0  0  0  0  0  0  0  0  0  0  0
  -22.3360  -27.9700   55.1900 C   0  0  0  0  0  0  0  0  0  0  0  0
  -21.7250  -26.8360   55.9590 C   0  0  0  0  0  0  0  0  0  0  0  0
  -24.1290  -24.3580   55.2220 H   0  0  0  0  0  0  0  0  0  0  0  0
  -25.1590  -26.2720   53.9230 H   0  0  0  0  0  0  0  0  0  0  0  0
  -24.0330  -28.5400   53.9030 H   0  0  0  0  0  0  0  0  0  0  0  0
  -21.8770  -28.8940   55.1820 H   0  0  0  0  0  0  0  0  0  0  0  0
  -21.7820  -24.3590   56.7410 O   0  0  0  0  0  0  0  0  0  0  0  0
  -20.4710  -23.7750   56.3030 C   0  0  0  0  0  0  0  0  0  0  0  0
  -19.9720  -24.1670   55.4410 H   0  0  0  0  0  0  0  0  0  0  0  0
  -20.0360  -22.9660   56.8510 H   0  0  0  0  0  0  0  0  0  0  0  0
  -19.5370  -23.3580   55.9900 H   0  0  0  0  0  0  0  0  0  0  0  0
  1 38  1  0
  1  2  2  0
  2 23  1  0
  3  2  1  0
  4  3  2  0
  5  4  1  0
  5  1  1  0
  6  4  1  0
  7  5  1  0
 10 11  2  0
 11 19  1  0
 11 20  1  0
 12 22  1  0
 12 21  1  0
 13  7  1  0
 14  8  1  0
 15  8  1  0
 16  9  1  0
 17  9  1  0
 18 10  1  0
 23 24  1  0
 24 30  1  0
 24 25  2  0
 25 31  1  0
 26 25  1  0
 26 27  1  0
 28 26  2  0
 29 23  2  0
 29 28  1  0
 32 28  1  0
 33 29  1  0
 34 42  1  0
 35 34  2  0
 36 35  1  0
 37 36  1  0
 37 38  2  0
 38 39  1  0
 39 34  2  0
 40 36  1  0
 41 37  1  0
 43 53  1  0
 44 49  1  0
 44 43  2  0
 45 44  1  0
 46 45  2  0
 46 47  1  0
 47 48  2  0
 48 43  1  0
 48 42  1  0
 50 45  1  0
 51 46  1  0
 52 47  1  0
 54 53  1  0
 54 56  1  0
 55 54  1  0
 57 54  1  0
M  END
>  <minimizedAffinity>  (75) 
-8.55874825

$$$$

     RDKit          3D

 51 54  0  0  0  0  0  0  0  0999 V2000
  -17.6600  -28.7580   54.4970 C   0  0  0  0  0  0  0  0  0  0  0  0
  -16.7990  -27.5380   54.6350 C   0  0  0  0  0  0  0  0  0  0  0  0
  -15.5540  -27.5890   55.4700 C   0  0  0  0  0  0  0  0  0  0  0  0
  -15.1700  -28.8600   56.1670 N   0  0  0  0  0  0  0  0  0  0  0  0
  -16.0310  -30.0800   56.0290 C   0  0  0  0  0  0  0  0  0  0  0  0
  -15.6470  -31.3520   56.7260 N   0  0  0  0  0  0  0  0  0  0  0  0
  -17.2760  -30.0300   55.1940 N   0  0  0  0  0  0  0  0  0  0  0  0
  -17.0640  -26.6630   54.1550 H   0  0  0  0  0  0  0  0  0  0  0  0
  -14.9620  -26.7490   55.5650 H   0  0  0  0  0  0  0  0  0  0  0  0
  -16.2120  -32.1520   56.6360 H   0  0  0  0  0  0  0  0  0  0  0  0
  -14.4020  -31.4030   57.5610 C   0  0  0  0  0  0  0  0  0  0  0  0
  -14.4880  -31.2270   59.0480 C   0  0  0  0  0  0  0  0  0  0  0  0
  -13.2430  -31.2780   59.8830 C   0  0  0  0  0  0  0  0  0  0  0  0
  -11.9120  -31.5040   59.2310 C   0  0  0  0  0  0  0  0  0  0  0  0
  -11.8250  -31.6800   57.7440 C   0  0  0  0  0  0  0  0  0  0  0  0
  -13.0700  -31.6300   56.9090 C   0  0  0  0  0  0  0  0  0  0  0  0
  -15.4050  -31.0710   59.4970 H   0  0  0  0  0  0  0  0  0  0  0  0
  -13.3030  -31.1570   60.9070 H   0  0  0  0  0  0  0  0  0  0  0  0
  -11.0550  -31.5390   59.8060 H   0  0  0  0  0  0  0  0  0  0  0  0
  -13.0110  -31.7510   55.8860 H   0  0  0  0  0  0  0  0  0  0  0  0
  -10.4940  -31.9070   57.0920 S   0  0  1  0  0  0  0  0  0  0  0  0
  -10.5470  -33.3540   57.4850 O   0  0  0  0  0  0  0  0  0  0  0  0
  -10.4400  -30.4610   56.6980 O   0  0  0  0  0  0  0  0  0  0  0  0
   -9.1620  -32.1340   56.4400 N   0  0  0  0  0  0  0  0  0  0  0  0
   -8.7410  -33.0640   56.4500 H   0  0  0  0  0  0  0  0  0  0  0  0
   -8.6780  -31.3600   55.9860 H   0  0  0  0  0  0  0  0  0  0  0  0
  -18.9050  -28.7070   53.6620 N   0  0  0  0  0  0  0  0  0  0  0  0
  -23.9990  -26.2910   55.6450 C   0  0  0  0  0  0  0  0  0  0  0  0
  -24.9720  -27.2240   54.9860 N   0  0  0  0  0  0  0  0  0  0  0  0
  -24.1890  -28.2370   54.2040 N   0  0  0  0  0  0  0  0  0  0  0  0
  -22.7300  -27.9300   54.3800 C   0  0  0  0  0  0  0  0  0  0  0  0
  -21.4940  -28.5890   53.8440 C   0  0  0  0  0  0  0  0  0  0  0  0
  -20.1410  -28.0470   54.1980 C   0  0  0  0  0  0  0  0  0  0  0  0
  -20.0240  -26.8460   55.0880 C   0  0  0  0  0  0  0  0  0  0  0  0
  -21.2600  -26.1860   55.6240 C   0  0  0  0  0  0  0  0  0  0  0  0
  -22.6130  -26.7280   55.2700 C   0  0  0  0  0  0  0  0  0  0  0  0
  -21.5750  -29.4160   53.2320 H   0  0  0  0  0  0  0  0  0  0  0  0
  -19.0930  -26.4730   55.3320 H   0  0  0  0  0  0  0  0  0  0  0  0
  -21.1790  -25.3590   56.2360 H   0  0  0  0  0  0  0  0  0  0  0  0
  -24.3490  -25.1280   56.5230 C   0  0  0  0  0  0  0  0  0  0  0  0
  -23.5730  -24.5230   56.9450 H   0  0  0  0  0  0  0  0  0  0  0  0
  -25.3750  -24.9010   56.7290 H   0  0  0  0  0  0  0  0  0  0  0  0
  -24.5990  -24.2970   57.1500 H   0  0  0  0  0  0  0  0  0  0  0  0
  -24.7610  -29.3580   53.3910 C   0  0  0  0  0  0  0  0  0  0  0  0
  -25.8220  -29.4890   53.3320 H   0  0  0  0  0  0  0  0  0  0  0  0
  -24.1100  -30.0270   52.8690 H   0  0  0  0  0  0  0  0  0  0  0  0
  -25.1710  -30.1590   52.8100 H   0  0  0  0  0  0  0  0  0  0  0  0
  -18.9150  -29.3160   52.2910 C   0  0  0  0  0  0  0  0  0  0  0  0
  -19.8030  -29.2800   51.6960 H   0  0  0  0  0  0  0  0  0  0  0  0
  -18.0330  -29.7870   51.9090 H   0  0  0  0  0  0  0  0  0  0  0  0
  -18.9210  -29.7510   51.3140 H   0  0  0  0  0  0  0  0  0  0  0  0
  1  2  1  0
  1  7  2  0
  2  3  2  0
  3  9  1  0
  3  4  1  0
  5  4  2  0
  5  6  1  0
  6 11  1  0
  7  5  1  0
  8  2  1  0
 10  6  1  0
 11 12  1  0
 12 17  1  0
 12 13  2  0
 13 18  1  0
 14 19  1  0
 14 13  1  0
 15 14  2  0
 16 11  2  0
 16 15  1  0
 20 16  1  0
 21 22  2  0
 21 15  1  0
 23 21  2  0
 24 25  1  0
 24 21  1  0
 26 24  1  0
 27 33  1  0
 27  1  1  0
 28 40  1  0
 29 28  2  0
 30 31  1  0
 30 29  1  0
 31 36  1  0
 32 33  1  0
 32 31  2  0
 33 34  2  0
 34 38  1  0
 34 35  1  0
 35 39  1  0
 36 35  2  0
 36 28  1  0
 37 32  1  0
 40 42  1  0
 40 41  1  0
 40 43  1  0
 44 30  1  0
 45 44  1  0
 46 44  1  0
 47 44  1  0
 48 27  1  0
 49 48  1  0
 50 48  1  0
 51 48  1  0
M  END
>  <minimizedAffinity>  (76) 
-9.4398737

$$$$

     RDKit          3D

 75 74  0  0  0  0  0  0  0  0999 V2000
  -24.8120  -27.7700   55.3150 C   0  0  0  0  0  0  0  0  0  0  0  0
  -25.3270  -26.4020   55.6540 C   0  0  0  0  0  0  0  0  0  0  0  0
  -24.3670  -25.3130   56.0330 C   0  0  0  0  0  0  0  0  0  0  0  0
  -22.8940  -25.5920   56.0730 C   0  0  0  0  0  0  0  0  0  0  0  0
  -21.9350  -24.5030   56.4520 N   0  0  0  0  0  0  0  0  0  0  0  0
  -20.4610  -24.7810   56.4920 C   0  0  0  0  0  0  0  0  0  0  0  0
  -19.9470  -26.1490   56.1530 N   0  0  0  0  0  0  0  0  0  0  0  0
  -20.9060  -27.2380   55.7740 C   0  0  0  0  0  0  0  0  0  0  0  0
  -20.3920  -28.6060   55.4350 N   0  0  0  0  0  0  0  0  0  0  0  0
  -22.3800  -26.9590   55.7340 C   0  0  0  0  0  0  0  0  0  0  0  0
  -23.3390  -28.0490   55.3550 C   0  0  0  0  0  0  0  0  0  0  0  0
  -26.3400  -26.2110   55.6270 H   0  0  0  0  0  0  0  0  0  0  0  0
  -24.7210  -24.3720   56.2660 H   0  0  0  0  0  0  0  0  0  0  0  0
  -19.8010  -24.0310   56.7520 H   0  0  0  0  0  0  0  0  0  0  0  0
  -21.0220  -29.3210   55.1860 H   0  0  0  0  0  0  0  0  0  0  0  0
  -22.9850  -28.9900   55.1220 H   0  0  0  0  0  0  0  0  0  0  0  0
  -18.9190  -28.8840   55.4750 C   0  0  0  0  0  0  0  0  0  0  0  0
  -18.4230  -30.3000   55.4750 C   0  0  0  0  0  0  0  0  0  0  0  0
  -16.9500  -30.5780   55.5150 C   0  0  0  0  0  0  0  0  0  0  0  0
  -15.9720  -29.4410   55.5550 C   0  0  0  0  0  0  0  0  0  0  0  0
  -16.4680  -28.0260   55.5540 C   0  0  0  0  0  0  0  0  0  0  0  0
  -15.4910  -26.8890   55.5940 Cl  0  0  0  0  0  0  0  0  0  0  0  0
  -17.9410  -27.7470   55.5140 C   0  0  0  0  0  0  0  0  0  0  0  0
  -19.0960  -31.0820   55.4480 H   0  0  0  0  0  0  0  0  0  0  0  0
  -16.6080  -31.5530   55.5160 H   0  0  0  0  0  0  0  0  0  0  0  0
  -18.2830  -26.7730   55.5140 H   0  0  0  0  0  0  0  0  0  0  0  0
  -14.4990  -29.7200   55.5950 O   0  0  0  0  0  0  0  0  0  0  0  0
  -14.0010  -31.0650   56.0360 C   0  0  0  0  0  0  0  0  0  0  0  0
  -14.0780  -31.9060   55.3780 H   0  0  0  0  0  0  0  0  0  0  0  0
  -13.6470  -32.0240   56.3510 H   0  0  0  0  0  0  0  0  0  0  0  0
  -13.3970  -31.2300   57.3990 C   0  0  0  0  0  0  0  0  0  0  0  0
  -14.2260  -30.9770   58.6230 C   0  0  0  0  0  0  0  0  0  0  0  0
  -13.6220  -31.1430   59.9860 C   0  0  0  0  0  0  0  0  0  0  0  0
  -12.1880  -31.5620   60.1240 C   0  0  0  0  0  0  0  0  0  0  0  0
  -11.3590  -31.8160   58.9000 C   0  0  0  0  0  0  0  0  0  0  0  0
   -9.9260  -32.2360   59.0390 F   0  0  0  0  0  0  0  0  0  0  0  0
  -11.9640  -31.6500   57.5370 C   0  0  0  0  0  0  0  0  0  0  0  0
  -15.2120  -30.6880   58.5270 H   0  0  0  0  0  0  0  0  0  0  0  0
  -14.1920  -30.9680   60.8280 H   0  0  0  0  0  0  0  0  0  0  0  0
  -11.7720  -31.6770   61.0620 H   0  0  0  0  0  0  0  0  0  0  0  0
  -11.3930  -31.8250   56.6950 H   0  0  0  0  0  0  0  0  0  0  0  0
  -27.3880  -30.6640   55.0790 C   0  0  0  0  0  3  0  0  0  0  0  0
  -27.1070  -30.4070   53.6280 C   0  0  0  0  0  0  0  0  0  0  0  0
  -26.1090  -29.2910   53.5400 C   0  0  0  0  0  0  0  0  0  0  0  0
  -25.7720  -28.8590   54.9370 C   0  0  0  0  0  0  0  0  0  0  0  0
  -26.5620  -29.7080   55.8870 O   0  0  0  0  0  0  0  0  0  0  0  0
  -27.5280  -30.9090   52.8310 H   0  0  0  0  0  0  0  0  0  0  0  0
  -25.7210  -28.8910   52.6720 H   0  0  0  0  0  0  0  0  0  0  0  0
  -28.3290  -31.6970   55.6250 C   0  0  0  0  0  2  0  0  0  0  0  0
  -28.1230  -32.7370   55.4840 H   0  0  0  0  0  0  0  0  0  0  0  0
  -27.4520  -32.0000   55.0950 H   0  0  0  0  0  0  0  0  0  0  0  0
  -29.5600  -31.2700   56.3700 N   0  0  0  0  0 15  0  0  0  0  0  0
  -29.6680  -31.5200   57.8450 C   0  0  0  0  0  2  0  0  0  0  0  0
  -30.1000  -32.4300   58.2040 H   0  0  0  0  0  0  0  0  0  0  0  0
  -30.0240  -32.2530   57.1510 H   0  0  0  0  0  0  0  0  0  0  0  0
  -29.1680  -30.4930   58.8170 C   0  0  0  0  0  3  0  0  0  0  0  0
  -29.8350  -29.7480   59.1980 H   0  0  0  0  0  0  0  0  0  0  0  0
  -30.1920  -30.4810   58.5050 H   0  0  0  0  0  0  0  0  0  0  0  0
  -27.7330  -30.5100   59.2540 C   0  0  0  0  0  0  0  0  0  0  0  0
  -27.3770  -29.7770   59.9480 H   0  0  0  0  0  0  0  0  0  0  0  0
  -27.0660  -31.2540   58.8730 H   0  0  0  0  0  0  0  0  0  0  0  0
  -26.7100  -30.5220   59.5660 H   0  0  0  0  0  0  0  0  0  0  0  0
  -30.6820  -30.5950   55.6380 C   0  0  0  0  0  3  0  0  0  0  0  0
  -31.3290  -31.1660   55.0060 H   0  0  0  0  0  0  0  0  0  0  0  0
  -31.4830  -30.1130   55.1170 H   0  0  0  0  0  0  0  0  0  0  0  0
  -30.8970  -29.1190   55.7940 C   0  0  0  0  0  0  0  0  0  0  0  0
  -31.7050  -28.7560   56.3960 H   0  0  0  0  0  0  0  0  0  0  0  0
  -31.0510  -28.0650   55.9060 H   0  0  0  0  0  0  0  0  0  0  0  0
  -29.9800  -28.1500   55.1090 S   0  0  1  0  0  0  0  0  0  0  0  0
  -30.6670  -28.4260   53.8030 O   0  0  0  0  0  0  0  0  0  0  0  0
  -29.2930  -27.8750   56.4130 O   0  0  0  0  0  0  0  0  0  0  0  0
  -29.0630  -27.1820   54.4220 C   0  0  0  0  0  0  0  0  0  0  0  0
  -29.1600  -27.0060   53.3710 H   0  0  0  0  0  0  0  0  0  0  0  0
  -28.3120  -26.6660   54.9830 H   0  0  0  0  0  0  0  0  0  0  0  0
  -28.4090  -26.4910   53.9320 H   0  0  0  0  0  0  0  0  0  0  0  0
  1 11  2  0
  1  2  1  0
  2  3  2  0
  3  4  1  0
  3 13  1  0
  4  5  1  0
  5  6  2  0
  6 14  1  0
  7  6  1  0
  8  7  2  0
  9 17  1  0
  9  8  1  0
 10  8  1  0
 10  4  2  0
 11 10  1  0
 12  2  1  0
 15  9  1  0
 16 11  1  0
 17 23  1  0
 18 17  2  0
 18 19  1  0
 19 25  1  0
 19 20  2  0
 20 27  1  0
 21 20  1  0
 21 22  1  0
 23 26  1  0
 23 21  2  0
 24 18  1  0
 27 28  1  0
 28 30  1  0
 28 31  1  0
 29 28  1  0
 31 37  2  0
 31 32  1  0
 32 33  2  0
 33 34  1  0
 33 39  1  0
 34 40  1  0
 35 36  1  0
 35 34  2  0
 37 35  1  0
 38 32  1  0
 41 37  1  0
 42 46  1  0
 43 42  2  0
 44 43  1  0
 44 45  2  0
 45  1  1  0
 45 46  1  0
 47 43  1  0
 48 44  1  0
 50 49  1  0
 51 49  1  0
 53 54  1  0
 55 53  1  0
 56 57  1  0
 56 59  1  0
 58 56  1  0
 59 62  1  0
 59 60  1  0
 61 59  1  0
 63 66  1  0
 64 63  1  0
 65 63  1  0
 66 68  1  0
 66 67  1  0
 69 66  1  0
 69 71  2  0
 70 69  2  0
 72 74  1  0
 72 69  1  0
 73 72  1  0
 75 72  1  0
M  END
>  <minimizedAffinity>  (77) 
-12.4587774

$$$$

     RDKit          3D

 55 58  0  0  0  0  0  0  0  0999 V2000
  -20.9200  -27.1510   55.6630 C   0  0  0  0  0  0  0  0  0  0  0  0
  -21.2450  -25.9000   56.4240 C   0  0  0  0  0  0  0  0  0  0  0  0
  -22.6430  -25.3570   56.4120 C   0  0  0  0  0  0  0  0  0  0  0  0
  -23.7160  -26.0650   55.6390 C   0  0  0  0  0  0  0  0  0  0  0  0
  -23.3910  -27.3170   54.8790 C   0  0  0  0  0  0  0  0  0  0  0  0
  -21.9930  -27.8590   54.8910 C   0  0  0  0  0  0  0  0  0  0  0  0
  -20.5070  -25.4120   56.9550 H   0  0  0  0  0  0  0  0  0  0  0  0
  -22.8670  -24.4960   56.9350 H   0  0  0  0  0  0  0  0  0  0  0  0
  -24.1290  -27.8040   54.3470 H   0  0  0  0  0  0  0  0  0  0  0  0
  -21.7690  -28.7200   54.3670 H   0  0  0  0  0  0  0  0  0  0  0  0
  -25.1150  -25.5230   55.6280 N   0  0  0  0  0  0  0  0  0  0  0  0
  -26.2840  -26.4620   55.6590 C   0  0  0  0  0  0  0  0  0  0  0  0
  -26.0550  -27.9440   55.7020 O   0  0  0  0  0  0  0  0  0  0  0  0
  -27.6820  -25.9190   55.6470 N   0  0  0  0  0  0  0  0  0  0  0  0
  -25.2650  -24.5510   55.5990 H   0  0  0  0  0  0  0  0  0  0  0  0
  -27.8320  -24.9470   55.6190 H   0  0  0  0  0  0  0  0  0  0  0  0
  -28.8510  -26.8580   55.6790 C   0  0  0  0  0  0  0  0  0  0  0  0
  -29.6430  -27.1130   54.4300 C   0  0  0  0  0  0  0  0  0  0  0  0
  -30.8120  -28.0520   54.4610 C   0  0  0  0  0  0  0  0  0  0  0  0
  -31.1900  -28.7370   55.7410 C   0  0  0  0  0  0  0  0  0  0  0  0
  -30.3980  -28.4820   56.9900 C   0  0  0  0  0  0  0  0  0  0  0  0
  -29.2290  -27.5430   56.9590 C   0  0  0  0  0  0  0  0  0  0  0  0
  -28.4380  -27.2890   58.2070 F   0  0  0  0  0  0  0  0  0  0  0  0
  -29.3830  -26.6420   53.5500 H   0  0  0  0  0  0  0  0  0  0  0  0
  -31.9940  -29.3830   55.7630 H   0  0  0  0  0  0  0  0  0  0  0  0
  -30.6580  -28.9530   57.8710 H   0  0  0  0  0  0  0  0  0  0  0  0
  -31.6030  -28.3060   53.2130 C   0  0  0  0  0  0  0  0  0  0  0  0
  -32.3950  -28.5610   51.9640 F   0  0  0  0  0  0  0  0  0  0  0  0
  -31.8640  -29.7130   53.6640 F   0  0  0  0  0  0  0  0  0  0  0  0
  -31.3430  -26.9000   52.7610 F   0  0  0  0  0  0  0  0  0  0  0  0
  -19.5210  -27.6930   55.6750 S   0  0  2  0  0  0  0  0  0  0  0  0
  -20.0160  -28.9530   56.3220 O   0  0  0  0  0  0  0  0  0  0  0  0
  -19.0270  -26.4340   55.0280 O   0  0  0  0  0  0  0  0  0  0  0  0
  -14.0670  -34.1500   55.9820 C   0  0  0  0  0  0  0  0  0  0  0  0
  -15.5490  -34.3780   56.0170 O   0  0  0  0  0  0  0  0  0  0  0  0
  -13.5250  -32.7540   55.8900 N   0  0  0  0  0  0  0  0  0  0  0  0
  -14.4650  -31.5870   55.8340 C   0  0  0  0  0  0  0  0  0  0  0  0
  -14.0710  -30.1420   55.7410 N   0  0  0  0  0  0  0  0  0  0  0  0
  -15.3260  -29.3210   55.7110 C   0  0  0  0  0  0  0  0  0  0  0  0
  -15.5560  -27.8410   55.6250 C   0  0  0  0  0  0  0  0  0  0  0  0
  -16.9540  -27.2990   55.6130 C   0  0  0  0  0  0  0  0  0  0  0  0
  -18.1230  -28.2360   55.6870 C   0  0  0  0  0  0  0  0  0  0  0  0
  -17.8940  -29.7160   55.7720 C   0  0  0  0  0  0  0  0  0  0  0  0
  -16.4950  -30.2590   55.7840 C   0  0  0  0  0  0  0  0  0  0  0  0
  -15.9630  -31.6590   55.8600 N   0  0  0  0  0  0  0  0  0  0  0  0
  -12.5510  -32.6050   55.8670 H   0  0  0  0  0  0  0  0  0  0  0  0
  -14.7520  -27.1970   55.5740 H   0  0  0  0  0  0  0  0  0  0  0  0
  -17.1120  -26.2800   55.5540 H   0  0  0  0  0  0  0  0  0  0  0  0
  -18.6980  -30.3610   55.8230 H   0  0  0  0  0  0  0  0  0  0  0  0
  -16.5020  -32.4810   55.9180 H   0  0  0  0  0  0  0  0  0  0  0  0
  -13.1270  -35.3180   56.0380 O   0  0  0  0  0  0  0  0  0  0  0  0
  -12.4390  -35.6650   57.3250 C   0  0  0  0  0  0  0  0  0  0  0  0
  -12.6180  -35.0800   58.2030 H   0  0  0  0  0  0  0  0  0  0  0  0
  -11.7680  -36.4980   57.3650 H   0  0  0  0  0  0  0  0  0  0  0  0
  -11.9480  -35.9130   58.2430 H   0  0  0  0  0  0  0  0  0  0  0  0
  1 31  1  0
  1  2  1  0
  2  7  1  0
  3  2  2  0
  3  8  1  0
  4  3  1  0
  5  6  1  0
  5  4  2  0
  6  1  2  0
  9  5  1  0
 10  6  1  0
 11  4  1  0
 11 12  1  0
 12 13  2  0
 14 12  1  0
 14 17  1  0
 15 11  1  0
 16 14  1  0
 17 22  1  0
 18 19  1  0
 18 17  2  0
 19 20  2  0
 20 25  1  0
 20 21  1  0
 21 26  1  0
 22 21  2  0
 22 23  1  0
 24 18  1  0
 27 29  1  0
 27 19  1  0
 28 27  1  0
 30 27  1  0
 31 42  1  0
 31 32  2  0
 33 31  2  0
 34 35  2  0
 34 51  1  0
 36 34  1  0
 37 45  1  0
 37 36  1  0
 38 37  2  0
 39 38  1  0
 39 44  1  0
 40 39  2  0
 41 40  1  0
 41 42  2  0
 42 43  1  0
 43 44  2  0
 43 49  1  0
 44 45  1  0
 45 50  1  0
 46 36  1  0
 47 40  1  0
 48 41  1  0
 51 52  1  0
 52 54  1  0
 52 53  1  0
 52 55  1  0
M  END
>  <minimizedAffinity>  (78) 
-9.54718876

$$$$

     RDKit          3D

 34 30  0  0  0  0  0  0  0  0999 V2000
  -23.3960  -26.3610   55.5320 C   0  0  0  0  0  0  0  0  0  0  0  0
  -22.4270  -27.3790   55.0090 C   0  0  0  0  0  0  0  0  0  0  0  0
  -23.2080  -28.5830   54.5710 S   0  0  0  0  0  0  0  0  0  0  0  0
  -24.6610  -28.3090   54.8240 C   0  0  0  0  0 15  0  0  0  0  0  0
  -24.7780  -26.9360   55.4180 C   0  0  0  0  0  3  0  0  0  0  0  0
  -26.1260  -26.3870   55.7780 C   0  0  0  0  0  3  0  0  0  0  0  0
  -27.3580  -27.2100   55.5440 C   0  0  0  0  0  2  0  0  0  0  0  0
  -27.2420  -28.5820   54.9510 C   0  0  0  0  0  2  0  0  0  0  0  0
  -25.8930  -29.1320   54.5910 C   0  0  0  0  0  2  0  0  0  0  0  0
  -26.2090  -25.4070   56.2010 H   0  0  0  0  0  0  0  0  0  0  0  0
  -27.0880  -25.9950   56.0350 H   0  0  0  0  0  0  0  0  0  0  0  0
  -28.3200  -26.8180   55.8010 H   0  0  0  0  0  0  0  0  0  0  0  0
  -28.2370  -27.7970   55.3780 H   0  0  0  0  0  0  0  0  0  0  0  0
  -28.1210  -29.1690   54.7840 H   0  0  0  0  0  0  0  0  0  0  0  0
  -27.1590  -29.5610   54.5270 H   0  0  0  0  0  0  0  0  0  0  0  0
  -25.8100  -30.1110   54.1670 H   0  0  0  0  0  0  0  0  0  0  0  0
  -24.9310  -29.5240   54.3340 H   0  0  0  0  0  0  0  0  0  0  0  0
  -20.9370  -27.2220   54.9360 N   0  0  0  0  0  0  0  0  0  0  0  0
  -20.0510  -28.0530   55.8150 C   0  0  0  0  0  0  0  0  0  0  0  0
  -20.6550  -29.0430   56.7670 O   0  0  0  0  0  0  0  0  0  0  0  0
  -20.5400  -26.5720   54.3110 H   0  0  0  0  0  0  0  0  0  0  0  0
  -18.5610  -27.8950   55.7420 C   0  0  0  0  0  0  0  0  0  0  0  0
  -17.7090  -29.0340   55.2660 C   0  0  0  0  0  0  0  0  0  0  0  0
  -16.2190  -28.8760   55.1930 C   0  0  0  0  0  0  0  0  0  0  0  0
  -15.5810  -27.5800   55.5960 C   0  0  0  0  0  0  0  0  0  0  0  0
  -16.4340  -26.4410   56.0720 C   0  0  0  0  0  0  0  0  0  0  0  0
  -17.9240  -26.5990   56.1450 C   0  0  0  0  0  0  0  0  0  0  0  0
  -18.7760  -25.4600   56.6210 F   0  0  0  0  0  0  0  0  0  0  0  0
  -18.1470  -29.9260   54.9880 H   0  0  0  0  0  0  0  0  0  0  0  0
  -15.6320  -29.6600   54.8650 H   0  0  0  0  0  0  0  0  0  0  0  0
  -14.5560  -27.4710   55.5450 H   0  0  0  0  0  0  0  0  0  0  0  0
  -15.9950  -25.5490   56.3490 H   0  0  0  0  0  0  0  0  0  0  0  0
  -22.6980  -23.6530   56.6160 N   0  0  0  0  0  1  0  0  0  0  0  0
  -23.0470  -25.0080   56.0740 C   0  0  0  0  0  2  0  0  0  0  0  0
  1 34  1  0
  2  1  1  0
  3  2  2  0
  5  1  2  0
  5  6  1  0
  6 11  1  0
  6 10  1  0
  7 12  1  0
 13  7  1  0
 14  8  1  0
 15  8  1  0
 16  9  1  0
 17  9  1  0
 18  2  1  0
 18 19  1  0
 19 20  2  0
 21 18  1  0
 22 19  1  0
 22 27  1  0
 23 22  2  0
 24 23  1  0
 24 25  2  0
 25 26  1  0
 26 27  2  0
 26 32  1  0
 27 28  1  0
 29 23  1  0
 30 24  1  0
 31 25  1  0
 34 33  1  0
M  END
>  <minimizedAffinity>  (79) 
-7.79083252

$$$$

     RDKit          3D

 38 35  0  0  0  0  0  0  0  0999 V2000
  -19.8800  -27.8360   55.7810 N   0  0  0  0  0 15  0  0  0  0  0  0
  -20.2560  -26.3880   55.8930 C   0  0  0  0  0  2  0  0  0  0  0  0
  -18.9940  -25.5770   55.8740 N   0  0  0  0  0  2  0  0  0  0  0  0
  -17.8370  -26.5240   55.7490 C   0  0  0  0  0  0  0  0  0  0  0  0
  -16.3560  -26.2960   55.6810 C   0  0  0  0  0  0  0  0  0  0  0  0
  -15.4230  -27.4640   55.5540 N   0  0  0  0  0  0  0  0  0  0  0  0
  -15.9700  -28.8590   55.4970 C   0  0  0  0  0  0  0  0  0  0  0  0
  -17.4510  -29.0870   55.5650 C   0  0  0  0  0  0  0  0  0  0  0  0
  -18.3850  -27.9200   55.6910 C   0  0  0  0  0  3  0  0  0  0  0  0
  -15.9800  -25.3360   55.7200 H   0  0  0  0  0  0  0  0  0  0  0  0
  -15.3280  -29.6620   55.4100 H   0  0  0  0  0  0  0  0  0  0  0  0
  -17.8280  -30.0470   55.5260 H   0  0  0  0  0  0  0  0  0  0  0  0
  -21.6500  -25.8450   56.0060 C   0  0  0  0  0  0  0  0  0  0  0  0
  -22.9180  -26.6360   55.8680 N   0  0  0  0  0  0  0  0  0  0  0  0
  -24.0730  -25.6960   56.0530 O   0  0  0  0  0  0  0  0  0  0  0  0
  -23.5190  -24.3250   56.3050 N   0  0  0  0  0  0  0  0  0  0  0  0
  -22.0210  -24.4170   56.2760 C   0  0  0  0  0  0  0  0  0  0  0  0
  -21.0650  -23.2810   56.4810 N   0  0  0  0  0  0  0  0  0  0  0  0
  -20.0940  -23.4420   56.4430 H   0  0  0  0  0  0  0  0  0  0  0  0
  -21.4060  -22.3740   56.6530 H   0  0  0  0  0  0  0  0  0  0  0  0
  -20.8310  -28.9950   55.7610 C   0  0  0  0  0  2  0  0  0  0  0  0
  -21.3720  -29.2590   56.6460 H   0  0  0  0  0  0  0  0  0  0  0  0
  -20.6930  -28.4310   56.6600 H   0  0  0  0  0  0  0  0  0  0  0  0
  -21.0250  -29.7850   54.5010 C   0  0  0  0  0  2  0  0  0  0  0  0
  -20.4880  -30.6990   54.3550 H   0  0  0  0  0  0  0  0  0  0  0  0
  -20.3500  -30.1350   55.2540 H   0  0  0  0  0  0  0  0  0  0  0  0
  -21.9700  -29.2940   53.4450 C   0  0  0  0  0  3  0  0  0  0  0  0
  -21.6670  -28.5180   52.7740 H   0  0  0  0  0  0  0  0  0  0  0  0
  -20.9920  -28.8680   53.5270 H   0  0  0  0  0  0  0  0  0  0  0  0
  -23.3420  -29.8920   53.3300 N   0  0  0  0  0  0  0  0  0  0  0  0
  -24.5510  -29.0540   53.6240 C   0  0  0  0  0  0  0  0  0  0  0  0
  -25.5290  -29.4800   53.5420 H   0  0  0  0  0  0  0  0  0  0  0  0
  -24.4360  -28.0320   53.9150 H   0  0  0  0  0  0  0  0  0  0  0  0
  -25.4140  -28.4580   53.8330 H   0  0  0  0  0  0  0  0  0  0  0  0
  -23.5030  -31.3260   52.9210 C   0  0  0  0  0  0  0  0  0  0  0  0
  -22.6410  -31.9230   52.7120 H   0  0  0  0  0  0  0  0  0  0  0  0
  -24.4810  -31.7520   52.8390 H   0  0  0  0  0  0  0  0  0  0  0  0
  -23.6190  -32.3490   52.6300 H   0  0  0  0  0  0  0  0  0  0  0  0
  2 13  1  0
  3  2  1  0
  4  3  1  0
  5 10  1  0
  5  4  2  0
  6  5  1  0
  7  6  2  0
  7  8  1  0
  8  9  2  0
  9  4  1  0
 11  7  1  0
 12  8  1  0
 13 17  1  0
 14 13  2  0
 14 15  1  0
 15 16  1  0
 17 16  2  0
 17 18  1  0
 18 20  1  0
 19 18  1  0
 21 22  1  0
 21 23  1  0
 24 26  1  0
 25 24  1  0
 27 29  1  0
 28 27  1  0
 30 27  1  0
 30 31  1  0
 31 34  1  0
 31 33  1  0
 32 31  1  0
 35 30  1  0
 36 35  1  0
 37 35  1  0
 38 35  1  0
M  END
>  <minimizedAffinity>  (80) 
-8.17139339

$$$$

     RDKit          3D

 42 45  0  0  1  0  0  0  0  0999 V2000
  -20.5440  -27.5520   55.7040 N   0  0  0  0  0  0  0  0  0  0  0  0
  -20.7270  -29.0400   55.6570 N   0  0  0  0  0  0  0  0  0  0  0  0
  -19.3850  -29.6650   55.4130 C   0  0  0  0  0  0  0  0  0  0  0  0
  -18.3730  -28.5620   55.3100 C   0  0  0  0  0  0  0  0  0  0  0  0
  -16.8910  -28.5790   55.0750 C   0  0  0  0  0  3  0  0  0  0  0  0
  -16.1260  -27.2900   55.0200 N   0  0  0  0  0  0  0  0  0  0  0  0
  -16.8420  -25.9850   55.2000 C   0  0  0  0  0  0  0  0  0  0  0  0
  -18.3240  -25.9680   55.4350 N   0  0  0  0  0  2  0  0  0  0  0  0
  -19.0890  -27.2570   55.4900 C   0  0  0  0  0  0  0  0  0  0  0  0
  -19.1920  -30.6750   55.3310 H   0  0  0  0  0  0  0  0  0  0  0  0
  -16.3160  -25.0980   55.1620 H   0  0  0  0  0  0  0  0  0  0  0  0
  -24.1400  -25.8850   55.8940 C   0  0  0  0  0  0  0  0  0  0  0  0
  -23.7890  -24.5080   56.3730 C   0  0  0  0  0  0  0  0  0  0  0  0
  -22.3570  -24.1450   56.6290 C   0  0  0  0  0  0  0  0  0  0  0  0
  -21.2750  -25.1600   56.4060 C   0  0  0  0  0  0  0  0  0  0  0  0
  -21.6260  -26.5370   55.9270 C   0  0  0  0  0  0  0  0  0  0  0  0
  -23.0580  -26.9000   55.6710 C   0  0  0  0  0  0  0  0  0  0  0  0
  -24.5340  -23.8090   56.5260 H   0  0  0  0  0  0  0  0  0  0  0  0
  -22.1150  -23.1970   56.9580 H   0  0  0  0  0  0  0  0  0  0  0  0
  -20.2900  -24.9100   56.5820 H   0  0  0  0  0  0  0  0  0  0  0  0
  -23.3000  -27.8480   55.3420 H   0  0  0  0  0  0  0  0  0  0  0  0
  -25.5740  -26.2490   55.6380 O   0  0  0  0  0  0  0  0  0  0  0  0
  -25.9420  -27.6670   55.3170 C   0  0  0  0  0  0  0  0  0  0  0  0
  -25.1820  -28.4200   55.2710 H   0  0  0  0  0  0  0  0  0  0  0  0
  -26.9630  -27.9270   55.1340 H   0  0  0  0  0  0  0  0  0  0  0  0
  -26.2040  -28.6790   55.0880 H   0  0  0  0  0  0  0  0  0  0  0  0
  -16.1750  -29.8850   54.8950 N   0  0  0  0  0  0  0  0  0  0  0  0
  -16.5120  -30.5460   54.2480 H   0  0  0  0  0  0  0  0  0  0  0  0
  -14.9460  -30.1830   55.7010 N   0  0  0  0  0  0  0  0  0  0  0  0
  -15.0490  -31.0090   56.9490 C   0  0  0  0  0  0  0  0  0  0  0  0
  -15.9660  -31.3710   57.2530 H   0  0  0  0  0  0  0  0  0  0  0  0
  -13.8200  -31.3070   57.7550 C   0  0  0  0  0  0  0  0  0  0  0  0
  -13.8600  -31.2020   59.2510 C   0  0  0  0  0  0  0  0  0  0  0  0
  -12.6300  -31.5010   60.0560 C   0  0  0  0  0  0  0  0  0  0  0  0
  -11.3610  -31.9040   59.3670 C   0  0  0  0  0  0  0  0  0  0  0  0
  -11.3210  -32.0080   57.8710 C   0  0  0  0  0  0  0  0  0  0  0  0
  -10.0510  -32.4110   57.1810 F   0  0  0  0  0  0  0  0  0  0  0  0
  -12.5500  -31.7100   57.0650 C   0  0  0  0  0  0  0  0  0  0  0  0
  -14.7330  -30.9250   59.7250 H   0  0  0  0  0  0  0  0  0  0  0  0
  -12.6580  -31.4290   61.0860 H   0  0  0  0  0  0  0  0  0  0  0  0
  -10.5150  -32.1090   59.9210 H   0  0  0  0  0  0  0  0  0  0  0  0
  -12.5220  -31.7810   56.0350 H   0  0  0  0  0  0  0  0  0  0  0  0
  1 16  1  0
  2  1  1  0
  3  2  2  0
  4  3  1  0
  4  9  2  0
  5 27  1  0
  5  4  1  0
  6  5  1  0
  6  7  2  0
  7  8  1  0
  8  9  1  0
  9  1  1  0
 10  3  1  0
 11  7  1  0
 12 13  1  0
 13 18  1  0
 13 14  2  0
 14 19  1  0
 15 20  1  0
 15 14  1  0
 16 15  2  0
 17 12  2  0
 17 16  1  0
 21 17  1  0
 22 12  1  0
 23 22  1  0
 24 23  1  0
 25 23  1  0
 26 23  1  0
 27 29  1  0
 28 27  1  0
 29 30  2  0
 30 31  1  0
 30 32  1  0
 32 33  1  0
 33 39  1  0
 33 34  2  0
 34 40  1  0
 35 41  1  0
 35 34  1  0
 36 35  2  0
 37 36  1  0
 38 32  2  0
 38 36  1  0
 42 38  1  0
M  END
>  <minimizedAffinity>  (81) 
-9.11640072

$$$$

     RDKit          3D

 50 52  0  0  0  0  0  0  0  0999 V2000
  -17.9500  -28.9000   55.1880 C   0  0  0  0  0  0  0  0  0  0  0  0
  -16.4680  -28.7260   55.3380 C   0  0  0  0  0  0  0  0  0  0  0  0
  -15.9120  -27.4260   55.8380 C   0  0  0  0  0  0  0  0  0  0  0  0
  -16.8380  -26.2990   56.1880 N   0  0  0  0  0  0  0  0  0  0  0  0
  -18.3200  -26.4730   56.0380 C   0  0  0  0  0  0  0  0  0  0  0  0
  -19.2460  -25.3460   56.3880 N   0  0  0  0  0  0  0  0  0  0  0  0
  -18.8760  -27.7730   55.5380 N   0  0  0  0  0  0  0  0  0  0  0  0
  -15.8310  -29.5020   55.0980 H   0  0  0  0  0  0  0  0  0  0  0  0
  -14.8920  -27.3070   55.9410 H   0  0  0  0  0  0  0  0  0  0  0  0
  -18.8810  -24.4930   56.7150 H   0  0  0  0  0  0  0  0  0  0  0  0
  -20.7280  -25.5190   56.2380 C   0  0  0  0  0  0  0  0  0  0  0  0
  -21.6460  -24.3540   56.4630 C   0  0  0  0  0  0  0  0  0  0  0  0
  -23.1290  -24.5270   56.3130 C   0  0  0  0  0  0  0  0  0  0  0  0
  -23.6930  -25.8660   55.9380 C   0  0  0  0  0  3  0  0  0  0  0  0
  -22.7750  -27.0300   55.7130 C   0  0  0  0  0  0  0  0  0  0  0  0
  -21.2930  -26.8570   55.8630 C   0  0  0  0  0  0  0  0  0  0  0  0
  -23.3400  -28.3690   55.3380 O   0  0  0  0  0  0  0  0  0  0  0  0
  -24.8220  -28.5420   55.1880 C   0  0  0  0  0  3  0  0  0  0  0  0
  -25.7400  -27.3770   55.4130 C   0  0  0  0  0  2  0  0  0  0  0  0
  -25.1760  -26.0390   55.7880 O   0  0  0  0  0 15  0  0  0  0  0  0
  -21.2580  -23.4330   56.7210 H   0  0  0  0  0  0  0  0  0  0  0  0
  -23.7600  -23.7260   56.4680 H   0  0  0  0  0  0  0  0  0  0  0  0
  -20.6610  -27.6580   55.7080 H   0  0  0  0  0  0  0  0  0  0  0  0
  -25.2250  -29.4970   54.9200 H   0  0  0  0  0  0  0  0  0  0  0  0
  -25.8800  -28.6660   55.0810 H   0  0  0  0  0  0  0  0  0  0  0  0
  -26.7980  -27.5010   55.3060 H   0  0  0  0  0  0  0  0  0  0  0  0
  -26.3950  -26.5460   55.5740 H   0  0  0  0  0  0  0  0  0  0  0  0
  -17.9950  -31.5680   55.0310 C   0  0  0  0  0  0  0  0  0  0  0  0
  -18.8440  -32.5740   54.3130 N   0  0  0  0  0  0  0  0  0  0  0  0
  -19.8810  -31.8280   53.5270 N   0  0  0  0  0  0  0  0  0  0  0  0
  -20.9890  -32.2950   52.6290 N   0  0  0  0  0  0  0  0  0  0  0  0
  -21.8870  -31.2950   51.9640 C   0  0  0  0  0  0  0  0  0  0  0  0
  -21.6790  -29.8280   52.1960 C   0  0  0  0  0  0  0  0  0  0  0  0
  -20.5720  -29.3610   53.0930 C   0  0  0  0  0  0  0  0  0  0  0  0
  -19.6730  -30.3610   53.7580 C   0  0  0  0  0  0  0  0  0  0  0  0
  -18.5070  -30.2000   54.6890 C   0  0  0  0  0  0  0  0  0  0  0  0
  -22.6500  -31.6170   51.3460 H   0  0  0  0  0  0  0  0  0  0  0  0
  -22.2970  -29.1400   51.7380 H   0  0  0  0  0  0  0  0  0  0  0  0
  -20.4280  -28.3510   53.2530 H   0  0  0  0  0  0  0  0  0  0  0  0
  -13.3610  -32.7970   58.6390 F   0  0  0  0  0  0  0  0  0  0  0  0
  -14.5200  -32.4900   57.7380 C   0  0  0  0  0  0  0  0  0  0  0  0
  -15.8780  -32.2310   58.3220 C   0  0  0  0  0  0  0  0  0  0  0  0
  -17.0360  -31.9240   57.4190 C   0  0  0  0  0  0  0  0  0  0  0  0
  -16.8370  -31.8750   55.9330 C   0  0  0  0  0  0  0  0  0  0  0  0
  -15.4790  -32.1340   55.3490 C   0  0  0  0  0  0  0  0  0  0  0  0
  -14.3220  -32.4410   56.2520 C   0  0  0  0  0  0  0  0  0  0  0  0
  -16.0140  -32.2650   59.3440 H   0  0  0  0  0  0  0  0  0  0  0  0
  -17.9700  -31.7460   57.8210 H   0  0  0  0  0  0  0  0  0  0  0  0
  -15.3430  -32.1000   54.3270 H   0  0  0  0  0  0  0  0  0  0  0  0
  -13.3880  -32.6190   55.8500 H   0  0  0  0  0  0  0  0  0  0  0  0
  1  2  1  0
  1  7  2  0
  2  3  2  0
  3  9  1  0
  3  4  1  0
  5  4  2  0
  5  6  1  0
  6 10  1  0
  7  5  1  0
  8  2  1  0
 11  6  1  0
 11 12  1  0
 12 21  1  0
 13 12  2  0
 13 22  1  0
 14 13  1  0
 15 16  1  0
 15 14  2  0
 16 11  2  0
 17 15  1  0
 18 17  1  0
 19 27  1  0
 23 16  1  0
 24 18  1  0
 25 18  1  0
 26 19  1  0
 28 44  1  0
 29 28  2  0
 30 35  1  0
 30 29  1  0
 31 30  1  0
 32 33  1  0
 32 31  2  0
 33 34  2  0
 34 39  1  0
 34 35  1  0
 35 36  2  0
 36 28  1  0
 36  1  1  0
 37 32  1  0
 38 33  1  0
 41 42  1  0
 41 40  1  0
 42 47  1  0
 43 48  1  0
 43 42  2  0
 44 43  1  0
 45 44  2  0
 45 46  1  0
 46 41  2  0
 49 45  1  0
 50 46  1  0
M  END
>  <minimizedAffinity>  (82) 
-10.0930004

$$$$

     RDKit          3D

 46 46  0  0  0  0  0  0  0  0999 V2000
  -22.3060  -26.1210   55.8690 C   0  0  0  0  0  0  0  0  0  0  0  0
  -21.0490  -26.8990   55.6160 C   0  0  0  0  0  0  0  0  0  0  0  0
  -19.7120  -26.2420   55.7940 C   0  0  0  0  0  0  0  0  0  0  0  0
  -19.6330  -24.8070   56.2240 C   0  0  0  0  0  0  0  0  0  0  0  0
  -20.8900  -24.0290   56.4760 C   0  0  0  0  0  0  0  0  0  0  0  0
  -22.2270  -24.6860   56.2990 N   0  0  0  0  0  0  0  0  0  0  0  0
  -21.1030  -27.8860   55.3200 H   0  0  0  0  0  0  0  0  0  0  0  0
  -18.7130  -24.3550   56.3460 H   0  0  0  0  0  0  0  0  0  0  0  0
  -20.8360  -23.0420   56.7720 H   0  0  0  0  0  0  0  0  0  0  0  0
  -26.3170  -28.0920   55.3370 C   0  0  0  0  0 15  0  0  0  0  0  0
  -25.0590  -28.8780   55.1130 C   0  0  0  0  0  2  0  0  0  0  0  0
  -23.7220  -28.2210   55.2900 C   0  0  0  0  0  0  0  0  0  0  0  0
  -23.6430  -26.7780   55.6910 C   0  0  0  0  0  0  0  0  0  0  0  0
  -24.9010  -25.9920   55.9150 C   0  0  0  0  0  0  0  0  0  0  0  0
  -26.2370  -26.6490   55.7380 C   0  0  0  0  0  3  0  0  0  0  0  0
  -25.1130  -29.8710   54.8360 H   0  0  0  0  0  0  0  0  0  0  0  0
  -22.8570  -28.7620   55.1360 H   0  0  0  0  0  0  0  0  0  0  0  0
  -24.8460  -24.9990   56.1920 H   0  0  0  0  0  0  0  0  0  0  0  0
  -27.1030  -26.1070   55.8920 H   0  0  0  0  0  0  0  0  0  0  0  0
  -27.6530  -28.7490   55.1590 C   0  0  0  0  0  3  0  0  0  0  0  0
  -27.1780  -28.2700   54.3280 H   0  0  0  0  0  0  0  0  0  0  0  0
  -28.3200  -29.4190   56.3240 C   0  0  0  0  0  0  0  0  0  0  0  0
  -27.8420  -29.4290   57.2810 H   0  0  0  0  0  0  0  0  0  0  0  0
  -29.2730  -29.8880   56.1970 H   0  0  0  0  0  0  0  0  0  0  0  0
  -28.7950  -29.8980   57.1550 H   0  0  0  0  0  0  0  0  0  0  0  0
  -28.3240  -28.7350   53.8170 C   0  0  0  0  0  0  0  0  0  0  0  0
  -29.2770  -29.2030   53.6910 H   0  0  0  0  0  0  0  0  0  0  0  0
  -27.8480  -28.2560   52.9860 H   0  0  0  0  0  0  0  0  0  0  0  0
  -28.8020  -28.7250   52.8600 H   0  0  0  0  0  0  0  0  0  0  0  0
  -18.4550  -27.0200   55.5410 C   0  0  0  0  0  0  0  0  0  0  0  0
  -17.0770  -26.6440   56.0020 C   0  0  0  0  0  0  0  0  0  0  0  0
  -16.1250  -27.7020   55.5290 N   0  0  0  0  0  0  0  0  0  0  0  0
  -16.9140  -28.7310   54.7750 N   0  0  0  0  0  0  0  0  0  0  0  0
  -18.3530  -28.3090   54.7820 C   0  0  0  0  0  0  0  0  0  0  0  0
  -16.8290  -25.8050   56.5490 H   0  0  0  0  0  0  0  0  0  0  0  0
  -15.1530  -27.7180   55.6860 H   0  0  0  0  0  0  0  0  0  0  0  0
  -19.4920  -29.0480   54.1430 C   0  0  0  0  0  0  0  0  0  0  0  0
  -20.0360  -28.5910   52.8230 C   0  0  0  0  0  0  0  0  0  0  0  0
  -21.1740  -29.3290   52.1830 C   0  0  0  0  0  0  0  0  0  0  0  0
  -21.7690  -30.5260   52.8650 C   0  0  0  0  0  0  0  0  0  0  0  0
  -21.2250  -30.9840   54.1860 C   0  0  0  0  0  0  0  0  0  0  0  0
  -20.0860  -30.2450   54.8250 N   0  0  0  0  0  0  0  0  0  0  0  0
  -19.6270  -27.7670   52.3540 H   0  0  0  0  0  0  0  0  0  0  0  0
  -21.5480  -29.0140   51.2740 H   0  0  0  0  0  0  0  0  0  0  0  0
  -22.5510  -31.0340   52.4260 H   0  0  0  0  0  0  0  0  0  0  0  0
  -21.6340  -31.8070   54.6540 H   0  0  0  0  0  0  0  0  0  0  0  0
  1  6  1  0
  2  3  1  0
  2  1  2  0
  3  4  2  0
  4  8  1  0
  4  5  1  0
  5  9  1  0
  6  5  2  0
  7  2  1  0
 11 12  1  0
 12 13  2  0
 13  1  1  0
 13 14  1  0
 14 18  1  0
 15 19  1  0
 15 14  2  0
 16 11  1  0
 17 12  1  0
 20 22  1  0
 21 20  1  0
 22 25  1  0
 22 23  1  0
 24 22  1  0
 26 20  1  0
 27 26  1  0
 28 26  1  0
 29 26  1  0
 30  3  1  0
 30 31  2  0
 31 35  1  0
 32 36  1  0
 32 31  1  0
 33 34  2  0
 33 32  1  0
 34 30  1  0
 37 34  1  0
 37 42  1  0
 38 37  2  0
 39 38  1  0
 39 40  2  0
 40 41  1  0
 41 46  1  0
 41 42  2  0
 43 38  1  0
 44 39  1  0
 45 40  1  0
M  END
>  <minimizedAffinity>  (83) 
-8.8194046

$$$$

     RDKit          3D

 31 33  0  0  0  0  0  0  0  0999 V2000
  -23.1940  -29.7130   54.5790 N   0  0  0  0  0  0  0  0  0  0  0  0
  -21.6950  -29.7600   54.6010 C   0  0  0  0  0  0  0  0  0  0  0  0
  -20.8440  -30.9250   54.1920 N   0  0  0  0  0  0  0  0  0  0  0  0
  -19.4060  -30.5340   54.3730 C   0  0  0  0  0  0  0  0  0  0  0  0
  -19.3700  -29.1280   54.8940 C   0  0  0  0  0  0  0  0  0  0  0  0
  -20.7840  -28.6490   55.0350 O   0  0  0  0  0  0  0  0  0  0  0  0
  -23.7070  -30.4970   54.2760 H   0  0  0  0  0  0  0  0  0  0  0  0
  -18.5870  -31.1290   54.1750 H   0  0  0  0  0  0  0  0  0  0  0  0
  -18.1360  -28.3400   55.2170 C   0  0  0  0  0  0  0  0  0  0  0  0
  -16.8180  -29.0390   55.3770 C   0  0  0  0  0  0  0  0  0  0  0  0
  -15.5840  -28.2500   55.7000 C   0  0  0  0  0  0  0  0  0  0  0  0
  -15.6670  -26.7620   55.8640 C   0  0  0  0  0  0  0  0  0  0  0  0
  -16.9850  -26.0620   55.7050 C   0  0  0  0  0  0  0  0  0  0  0  0
  -18.2190  -26.8510   55.3820 C   0  0  0  0  0  0  0  0  0  0  0  0
  -16.7610  -30.0640   55.2630 H   0  0  0  0  0  0  0  0  0  0  0  0
  -14.6780  -28.7320   55.8090 H   0  0  0  0  0  0  0  0  0  0  0  0
  -14.8190  -26.2200   56.0870 H   0  0  0  0  0  0  0  0  0  0  0  0
  -17.0410  -25.0380   55.8180 H   0  0  0  0  0  0  0  0  0  0  0  0
  -19.1250  -26.3690   55.2720 H   0  0  0  0  0  0  0  0  0  0  0  0
  -23.8580  -25.9740   55.7320 C   0  0  0  0  0  0  0  0  0  0  0  0
  -25.3480  -25.9900   55.9000 C   0  0  0  0  0  0  0  0  0  0  0  0
  -26.1210  -27.2460   55.6280 C   0  0  0  0  0  0  0  0  0  0  0  0
  -25.4030  -28.4870   55.1880 C   0  0  0  0  0  0  0  0  0  0  0  0
  -23.9120  -28.4720   55.0200 C   0  0  0  0  0  0  0  0  0  0  0  0
  -23.1400  -27.2150   55.2910 C   0  0  0  0  0  0  0  0  0  0  0  0
  -25.8420  -25.1350   56.2030 H   0  0  0  0  0  0  0  0  0  0  0  0
  -27.1460  -27.2570   55.7440 H   0  0  0  0  0  0  0  0  0  0  0  0
  -25.9340  -29.3520   55.0010 H   0  0  0  0  0  0  0  0  0  0  0  0
  -22.1140  -27.2050   55.1760 H   0  0  0  0  0  0  0  0  0  0  0  0
  -22.3130  -23.4600   56.2760 N   0  0  0  0  0  1  0  0  0  0  0  0
  -23.0850  -24.7170   56.0040 C   0  0  0  0  0  2  0  0  0  0  0  0
  1  2  1  0
  1 24  1  0
  2  6  1  0
  3  4  1  0
  3  2  2  0
  4  5  2  0
  5  6  1  0
  5  9  1  0
  7  1  1  0
  8  4  1  0
  9 10  2  0
  9 14  1  0
 10 11  1  0
 11 16  1  0
 11 12  2  0
 12 17  1  0
 13 18  1  0
 13 12  1  0
 14 13  2  0
 15 10  1  0
 19 14  1  0
 20 21  1  0
 20 31  1  0
 21 26  1  0
 22 27  1  0
 22 21  2  0
 23 22  1  0
 24 23  2  0
 24 25  1  0
 25 20  2  0
 28 23  1  0
 29 25  1  0
 31 30  1  0
M  END
>  <minimizedAffinity>  (84) 
-7.62781143

$$$$

     RDKit          3D

 66 66  0  0  0  0  0  0  0  0999 V2000
  -24.9120  -27.6030   55.2980 C   0  0  0  0  0  0  0  0  0  0  0  0
  -25.4200  -26.2390   55.6600 C   0  0  0  0  0  0  0  0  0  0  0  0
  -24.4580  -25.1660   56.0760 C   0  0  0  0  0  0  0  0  0  0  0  0
  -22.9880  -25.4570   56.1290 C   0  0  0  0  0  0  0  0  0  0  0  0
  -22.0260  -24.3830   56.5450 N   0  0  0  0  0  0  0  0  0  0  0  0
  -20.5550  -24.6740   56.5980 C   0  0  0  0  0  0  0  0  0  0  0  0
  -20.0470  -26.0380   56.2360 N   0  0  0  0  0  0  0  0  0  0  0  0
  -21.0090  -27.1110   55.8200 C   0  0  0  0  0  0  0  0  0  0  0  0
  -20.5000  -28.4750   55.4580 N   0  0  0  0  0  0  0  0  0  0  0  0
  -22.4790  -26.8200   55.7670 C   0  0  0  0  0  0  0  0  0  0  0  0
  -23.4410  -27.8940   55.3510 C   0  0  0  0  0  0  0  0  0  0  0  0
  -26.4320  -26.0390   55.6230 H   0  0  0  0  0  0  0  0  0  0  0  0
  -24.8080  -24.2270   56.3250 H   0  0  0  0  0  0  0  0  0  0  0  0
  -19.8930  -23.9350   56.8840 H   0  0  0  0  0  0  0  0  0  0  0  0
  -21.1310  -29.1800   55.1850 H   0  0  0  0  0  0  0  0  0  0  0  0
  -23.0910  -28.8320   55.1020 H   0  0  0  0  0  0  0  0  0  0  0  0
  -19.0290  -28.7660   55.5120 C   0  0  0  0  0  0  0  0  0  0  0  0
  -18.5440  -30.1850   55.4870 C   0  0  0  0  0  0  0  0  0  0  0  0
  -17.0730  -30.4750   55.5400 C   0  0  0  0  0  0  0  0  0  0  0  0
  -16.0880  -29.3470   55.6180 C   0  0  0  0  0  0  0  0  0  0  0  0
  -16.5740  -27.9280   55.6430 C   0  0  0  0  0  0  0  0  0  0  0  0
  -15.5880  -26.7990   55.7210 Br  0  0  0  0  0  0  0  0  0  0  0  0
  -18.0440  -27.6370   55.5900 C   0  0  0  0  0  0  0  0  0  0  0  0
  -19.2220  -30.9610   55.4330 H   0  0  0  0  0  0  0  0  0  0  0  0
  -16.7390  -31.4520   55.5230 H   0  0  0  0  0  0  0  0  0  0  0  0
  -18.3780  -26.6610   55.6070 H   0  0  0  0  0  0  0  0  0  0  0  0
  -14.6180  -29.6370   55.6720 O   0  0  0  0  0  0  0  0  0  0  0  0
  -14.1380  -31.0170   56.0110 C   0  0  0  0  0  0  0  0  0  0  0  0
  -14.3360  -31.8320   55.3460 H   0  0  0  0  0  0  0  0  0  0  0  0
  -13.7950  -32.0020   56.2540 H   0  0  0  0  0  0  0  0  0  0  0  0
  -13.3790  -31.2560   57.2830 C   0  0  0  0  0  0  0  0  0  0  0  0
  -14.0650  -31.0950   58.6070 C   0  0  0  0  0  0  0  0  0  0  0  0
  -13.3070  -31.3340   59.8790 C   0  0  0  0  0  0  0  0  0  0  0  0
  -11.8620  -31.7330   59.8270 C   0  0  0  0  0  0  0  0  0  0  0  0
  -11.1750  -31.8930   58.5030 C   0  0  0  0  0  0  0  0  0  0  0  0
  -11.9340  -31.6550   57.2310 C   0  0  0  0  0  0  0  0  0  0  0  0
  -15.0600  -30.8210   58.6430 H   0  0  0  0  0  0  0  0  0  0  0  0
  -13.7790  -31.2230   60.7900 H   0  0  0  0  0  0  0  0  0  0  0  0
  -11.3400  -31.8970   60.7020 H   0  0  0  0  0  0  0  0  0  0  0  0
  -10.1810  -32.1680   58.4670 H   0  0  0  0  0  0  0  0  0  0  0  0
  -11.4620  -31.7650   56.3200 H   0  0  0  0  0  0  0  0  0  0  0  0
  -26.8910  -30.5290   53.6890 C   0  0  0  0  0  1  0  0  0  0  0  0
  -27.8180  -30.1270   54.7970 C   0  0  0  0  0  3  0  0  0  0  0  0
  -27.1900  -28.9820   55.5350 C   0  0  0  0  0  0  0  0  0  0  0  0
  -25.8740  -28.6760   54.8820 C   0  0  0  0  0  0  0  0  0  0  0  0
  -25.6890  -29.6320   53.7420 O   0  0  0  0  0  1  0  0  0  0  0  0
  -28.7280  -30.5620   55.0130 H   0  0  0  0  0  0  0  0  0  0  0  0
  -27.5920  -28.4900   56.3480 H   0  0  0  0  0  0  0  0  0  0  0  0
  -27.1240  -31.6340   52.7010 C   0  0  0  0  0  3  0  0  0  0  0  0
  -28.1210  -31.9500   52.4780 H   0  0  0  0  0  0  0  0  0  0  0  0
  -27.9550  -31.1620   53.1820 H   0  0  0  0  0  0  0  0  0  0  0  0
  -25.9580  -32.2940   52.0260 N   0  0  0  0  0  2  0  0  0  0  0  0
  -25.7620  -32.1030   51.0430 H   0  0  0  0  0  0  0  0  0  0  0  0
  -25.0810  -33.2360   52.7970 C   0  0  0  0  0  2  0  0  0  0  0  0
  -25.3490  -34.2680   52.8830 H   0  0  0  0  0  0  0  0  0  0  0  0
  -25.9750  -33.5970   52.3330 H   0  0  0  0  0  0  0  0  0  0  0  0
  -23.8280  -32.7300   53.4480 C   0  0  0  0  0  3  0  0  0  0  0  0
  -23.8680  -32.3090   54.4300 H   0  0  0  0  0  0  0  0  0  0  0  0
  -24.7620  -32.6700   53.9660 H   0  0  0  0  0  0  0  0  0  0  0  0
  -22.5190  -32.8160   52.7200 S   0  0  1  0  0  0  0  0  0  0  0  0
  -22.1810  -34.0670   53.4730 O   0  0  0  0  0  0  0  0  0  0  0  0
  -22.8570  -31.5630   51.9660 O   0  0  0  0  0  0  0  0  0  0  0  0
  -21.2110  -32.9000   51.9920 C   0  0  0  0  0  0  0  0  0  0  0  0
  -20.9530  -32.1560   51.2660 H   0  0  0  0  0  0  0  0  0  0  0  0
  -20.5350  -33.7030   52.1970 H   0  0  0  0  0  0  0  0  0  0  0  0
  -20.2770  -32.9600   51.4720 H   0  0  0  0  0  0  0  0  0  0  0  0
  1 11  2  0
  1  2  1  0
  2  3  2  0
  3  4  1  0
  3 13  1  0
  4  5  1  0
  5  6  2  0
  6 14  1  0
  7  6  1  0
  8  7  2  0
  9 17  1  0
  9  8  1  0
 10  8  1  0
 10  4  2  0
 11 10  1  0
 12  2  1  0
 15  9  1  0
 16 11  1  0
 17 23  1  0
 18 17  2  0
 18 19  1  0
 19 20  2  0
 20 21  1  0
 20 27  1  0
 21 22  1  0
 23 26  1  0
 23 21  2  0
 24 18  1  0
 25 19  1  0
 27 28  1  0
 28 30  1  0
 28 31  1  0
 29 28  1  0
 31 32  1  0
 32 37  1  0
 32 33  2  0
 33 38  1  0
 34 33  1  0
 34 39  1  0
 35 34  2  0
 36 31  2  0
 36 35  1  0
 40 35  1  0
 41 36  1  0
 42 43  1  0
 43 47  1  0
 43 44  1  0
 44 48  1  0
 45  1  1  0
 45 44  2  0
 46 45  1  0
 49 51  1  0
 50 49  1  0
 52 49  1  0
 53 52  1  0
 54 55  1  0
 56 54  1  0
 57 59  1  0
 57 58  1  0
 60 57  1  0
 60 61  2  0
 62 60  2  0
 63 65  1  0
 63 60  1  0
 64 63  1  0
 66 63  1  0
M  END
>  <minimizedAffinity>  (85) 
-12.1519985

$$$$

     RDKit          3D

 34 37  0  0  1  0  0  0  0  0999 V2000
  -21.2230  -24.0070   56.4140 O   0  0  0  0  0  0  0  0  0  0  0  0
  -22.3710  -24.9410   56.1710 C   0  0  0  0  0  0  0  0  0  0  0  0
  -23.8260  -24.6060   56.3180 N   0  0  0  0  0  0  0  0  0  0  0  0
  -24.6200  -25.8330   55.9750 C   0  0  0  0  0  0  0  0  0  0  0  0
  -26.0960  -26.0960   55.9440 C   0  0  0  0  0  0  0  0  0  0  0  0
  -26.6080  -27.4510   55.5540 C   0  0  0  0  0  0  0  0  0  0  0  0
  -25.6440  -28.5430   55.1960 C   0  0  0  0  0  0  0  0  0  0  0  0
  -24.1670  -28.2800   55.2280 C   0  0  0  0  0  0  0  0  0  0  0  0
  -23.6550  -26.9250   55.6170 C   0  0  0  0  0  0  0  0  0  0  0  0
  -22.2650  -26.3730   55.7380 C   0  0  0  0  0  3  0  0  0  0  0  0
  -20.9940  -27.1230   55.4730 C   0  0  0  0  0  0  0  0  0  0  0  0
  -24.1950  -23.7360   56.5900 H   0  0  0  0  0  0  0  0  0  0  0  0
  -26.7590  -25.3450   56.1900 H   0  0  0  0  0  0  0  0  0  0  0  0
  -27.6240  -27.6320   55.5320 H   0  0  0  0  0  0  0  0  0  0  0  0
  -25.9960  -29.4750   54.9280 H   0  0  0  0  0  0  0  0  0  0  0  0
  -23.5040  -29.0310   54.9810 H   0  0  0  0  0  0  0  0  0  0  0  0
  -21.0290  -28.1110   55.1780 H   0  0  0  0  0  0  0  0  0  0  0  0
  -19.6700  -26.4360   55.6360 N   0  0  0  0  0  4  0  0  0  0  0  0
  -19.6320  -25.4560   55.7300 H   0  0  0  0  0  0  0  0  0  0  0  0
  -18.4040  -27.2410   55.6580 C   0  0  0  0  0  0  0  0  0  0  0  0
  -17.0850  -26.5570   55.8530 C   0  0  0  0  0  0  0  0  0  0  0  0
  -15.8180  -27.3620   55.8750 C   0  0  0  0  0  0  0  0  0  0  0  0
  -15.8730  -28.8510   55.7000 C   0  0  0  0  0  0  0  0  0  0  0  0
  -14.8000  -29.8990   55.6770 N   0  0  0  0  0  0  0  0  0  0  0  0
  -15.4570  -31.2300   55.4670 C   0  0  0  0  0  0  0  0  0  0  0  0
  -14.7580  -32.5550   55.3790 O   0  0  0  0  0  0  0  0  0  0  0  0
  -16.9370  -31.0050   55.3610 N   0  0  0  0  0  0  0  0  0  0  0  0
  -17.1940  -29.5350   55.5050 C   0  0  0  0  0  0  0  0  0  0  0  0
  -18.4600  -28.7300   55.4830 C   0  0  0  0  0  0  0  0  0  0  0  0
  -17.0460  -25.5330   55.9730 H   0  0  0  0  0  0  0  0  0  0  0  0
  -14.9100  -26.8910   56.0090 H   0  0  0  0  0  0  0  0  0  0  0  0
  -13.8340  -29.7390   55.7810 H   0  0  0  0  0  0  0  0  0  0  0  0
  -17.6190  -31.7020   55.2200 H   0  0  0  0  0  0  0  0  0  0  0  0
  -19.3690  -29.2010   55.3490 H   0  0  0  0  0  0  0  0  0  0  0  0
  2  3  1  0
  2  1  2  0
  3 12  1  0
  4  3  1  0
  5  4  1  0
  5 13  1  0
  6  5  2  0
  7  8  2  0
  7  6  1  0
  8  9  1  0
  9 10  1  0
  9  4  2  0
 10 11  1  0
 10  2  1  0
 11 18  2  0
 14  6  1  0
 15  7  1  0
 16  8  1  0
 17 11  1  0
 18 20  1  0
 18 19  1  0
 20 21  1  0
 21 22  2  0
 21 30  1  0
 22 31  1  0
 23 22  1  0
 24 23  1  0
 24 32  1  0
 25 24  1  0
 26 25  2  0
 27 25  1  0
 27 28  1  0
 28 23  2  0
 29 28  1  0
 29 20  2  0
 33 27  1  0
 34 29  1  0
M  END
>  <minimizedAffinity>  (86) 
-8.53139877

$$$$

     RDKit          3D

 42 45  0  0  1  0  0  0  0  0999 V2000
  -20.5550  -27.5770   55.6630 C   0  0  0  0  0  0  0  0  0  0  0  0
  -20.7340  -29.0610   55.5450 C   0  0  0  0  0  0  0  0  0  0  0  0
  -19.3870  -29.6720   55.2980 N   0  0  0  0  0  0  0  0  0  0  0  0
  -18.3750  -28.5650   55.2640 C   0  0  0  0  0  0  0  0  0  0  0  0
  -16.8890  -28.5690   55.0560 C   0  0  0  0  0  3  0  0  0  0  0  0
  -16.1260  -27.2780   55.0750 N   0  0  0  0  0  0  0  0  0  0  0  0
  -16.8480  -25.9830   55.3010 C   0  0  0  0  0  0  0  0  0  0  0  0
  -18.3340  -25.9790   55.5080 N   0  0  0  0  0  2  0  0  0  0  0  0
  -19.0970  -27.2700   55.4900 C   0  0  0  0  0  0  0  0  0  0  0  0
  -21.6270  -29.5730   55.6200 H   0  0  0  0  0  0  0  0  0  0  0  0
  -19.1990  -30.6320   55.1790 H   0  0  0  0  0  0  0  0  0  0  0  0
  -16.3230  -25.0940   55.3130 H   0  0  0  0  0  0  0  0  0  0  0  0
  -24.1630  -25.9430   55.9130 C   0  0  0  0  0  0  0  0  0  0  0  0
  -23.8190  -24.5700   56.4090 C   0  0  0  0  0  0  0  0  0  0  0  0
  -22.3870  -24.1990   56.6560 C   0  0  0  0  0  0  0  0  0  0  0  0
  -21.2990  -25.2010   56.4080 C   0  0  0  0  0  0  0  0  0  0  0  0
  -21.6430  -26.5740   55.9120 C   0  0  0  0  0  0  0  0  0  0  0  0
  -23.0750  -26.9460   55.6640 C   0  0  0  0  0  0  0  0  0  0  0  0
  -24.5680  -23.8810   56.5800 H   0  0  0  0  0  0  0  0  0  0  0  0
  -22.1500  -23.2550   56.9970 H   0  0  0  0  0  0  0  0  0  0  0  0
  -20.3140  -24.9460   56.5780 H   0  0  0  0  0  0  0  0  0  0  0  0
  -23.3120  -27.8900   55.3230 H   0  0  0  0  0  0  0  0  0  0  0  0
  -25.5960  -26.3150   55.6660 O   0  0  0  0  0  0  0  0  0  0  0  0
  -25.9560  -27.7330   55.3330 C   0  0  0  0  0  0  0  0  0  0  0  0
  -25.1910  -28.4790   55.2730 H   0  0  0  0  0  0  0  0  0  0  0  0
  -26.9770  -27.9980   55.1570 H   0  0  0  0  0  0  0  0  0  0  0  0
  -26.2130  -28.7440   55.0960 H   0  0  0  0  0  0  0  0  0  0  0  0
  -16.1670  -29.8640   54.8300 N   0  0  0  0  0  0  0  0  0  0  0  0
  -16.4110  -30.4380   54.0680 H   0  0  0  0  0  0  0  0  0  0  0  0
  -15.0730  -30.2860   55.7660 N   0  0  0  0  0  0  0  0  0  0  0  0
  -15.3610  -31.2650   56.8650 C   0  0  0  0  0  0  0  0  0  0  0  0
  -16.3130  -31.6490   56.9770 H   0  0  0  0  0  0  0  0  0  0  0  0
  -14.2670  -31.6870   57.8000 C   0  0  0  0  0  0  0  0  0  0  0  0
  -13.3470  -32.8090   57.4200 C   0  0  0  0  0  0  0  0  0  0  0  0
  -12.2520  -33.2300   58.3560 C   0  0  0  0  0  0  0  0  0  0  0  0
  -12.0780  -32.5300   59.6710 N   0  0  0  0  0  0  0  0  0  0  0  0
  -12.9990  -31.4080   60.0500 C   0  0  0  0  0  0  0  0  0  0  0  0
  -14.0930  -30.9860   59.1150 C   0  0  0  0  0  0  0  0  0  0  0  0
  -13.4660  -33.2910   56.5150 H   0  0  0  0  0  0  0  0  0  0  0  0
  -11.6190  -34.0020   58.0940 H   0  0  0  0  0  0  0  0  0  0  0  0
  -12.8790  -30.9260   60.9550 H   0  0  0  0  0  0  0  0  0  0  0  0
  -14.7260  -30.2140   59.3760 H   0  0  0  0  0  0  0  0  0  0  0  0
  1 17  1  0
  2 10  1  0
  2  1  2  0
  3  2  1  0
  4  3  1  0
  4  9  2  0
  5 28  1  0
  5  6  1  0
  5  4  1  0
  6  7  2  0
  7 12  1  0
  7  8  1  0
  9  8  1  0
  9  1  1  0
 11  3  1  0
 13 14  1  0
 14 19  1  0
 14 15  2  0
 15 20  1  0
 16 21  1  0
 16 15  1  0
 17 16  2  0
 18 17  1  0
 18 13  2  0
 22 18  1  0
 23 13  1  0
 24 23  1  0
 25 24  1  0
 26 24  1  0
 27 24  1  0
 28 30  1  0
 29 28  1  0
 30 31  2  0
 31 32  1  0
 31 33  1  0
 33 38  1  0
 34 33  2  0
 34 35  1  0
 35 36  2  0
 36 37  1  0
 37 41  1  0
 38 42  1  0
 38 37  2  0
 39 34  1  0
 40 35  1  0
M  END
>  <minimizedAffinity>  (87) 
-9.13226795

$$$$

     RDKit          3D

 35 38  0  0  0  0  0  0  0  0999 V2000
  -24.5310  -24.9680   55.9600 N   0  0  0  0  0  0  0  0  0  0  0  0
  -23.0350  -24.9610   56.0790 C   0  0  0  0  0  0  0  0  0  0  0  0
  -22.3110  -23.6740   56.3430 N   0  0  0  0  0  0  0  0  0  0  0  0
  -20.8160  -23.6650   56.4630 C   0  0  0  0  0  0  0  0  0  0  0  0
  -20.0450  -24.9450   56.3190 C   0  0  0  0  0  0  0  0  0  0  0  0
  -20.7700  -26.2310   56.0550 C   0  0  0  0  0  0  0  0  0  0  0  0
  -22.2640  -26.2390   55.9350 N   0  0  0  0  0  0  0  0  0  0  0  0
  -25.0360  -24.1290   56.0540 H   0  0  0  0  0  0  0  0  0  0  0  0
  -20.3170  -22.7810   56.6440 H   0  0  0  0  0  0  0  0  0  0  0  0
  -19.0160  -24.9390   56.4010 H   0  0  0  0  0  0  0  0  0  0  0  0
  -19.9990  -27.5090   55.9110 C   0  0  0  0  0  0  0  0  0  0  0  0
  -20.5850  -28.8850   55.7890 C   0  0  0  0  0  0  0  0  0  0  0  0
  -19.4550  -29.8630   55.6660 N   0  0  0  0  0  0  0  0  0  0  0  0
  -18.1690  -29.0920   55.7130 N   0  0  0  0  0  0  0  0  0  0  0  0
  -16.7350  -29.5260   55.6370 N   0  0  0  0  0  0  0  0  0  0  0  0
  -15.6370  -28.5070   55.7130 C   0  0  0  0  0  0  0  0  0  0  0  0
  -15.9730  -27.0530   55.8640 C   0  0  0  0  0  0  0  0  0  0  0  0
  -17.4070  -26.6180   55.9400 C   0  0  0  0  0  0  0  0  0  0  0  0
  -18.5050  -27.6380   55.8640 C   0  0  0  0  0  0  0  0  0  0  0  0
  -21.5910  -29.1170   55.7890 H   0  0  0  0  0  0  0  0  0  0  0  0
  -14.6510  -28.8060   55.6610 H   0  0  0  0  0  0  0  0  0  0  0  0
  -15.2180  -26.3510   55.9170 H   0  0  0  0  0  0  0  0  0  0  0  0
  -17.6380  -25.6180   56.0440 H   0  0  0  0  0  0  0  0  0  0  0  0
  -25.2630  -28.6850   54.7750 C   0  0  0  0  0  0  0  0  0  0  0  0
  -26.7030  -28.8280   55.1680 C   0  0  0  0  0  0  0  0  0  0  0  0
  -27.4190  -27.6860   55.8240 C   0  0  0  0  0  0  0  0  0  0  0  0
  -26.6950  -26.3990   56.0880 C   0  0  0  0  0  0  0  0  0  0  0  0
  -25.2550  -26.2550   55.6960 C   0  0  0  0  0  0  0  0  0  0  0  0
  -24.5380  -27.3980   55.0390 C   0  0  0  0  0  0  0  0  0  0  0  0
  -27.2010  -29.7140   54.9860 H   0  0  0  0  0  0  0  0  0  0  0  0
  -28.4110  -27.7850   56.0940 H   0  0  0  0  0  0  0  0  0  0  0  0
  -27.1880  -25.6130   56.5390 H   0  0  0  0  0  0  0  0  0  0  0  0
  -23.5480  -27.2990   54.7700 H   0  0  0  0  0  0  0  0  0  0  0  0
  -23.8310  -30.9710   53.4630 N   0  0  0  0  0  1  0  0  0  0  0  0
  -24.5460  -29.8280   54.1190 C   0  0  0  0  0  2  0  0  0  0  0  0
  1  8  1  0
  1  2  1  0
  2  3  2  0
  3  4  1  0
  4  9  1  0
  5 10  1  0
  5  4  2  0
  6  5  1  0
  7  6  2  0
  7  2  1  0
 11  6  1  0
 12 20  1  0
 12 11  1  0
 13 14  1  0
 13 12  2  0
 14 19  1  0
 15 16  2  0
 15 14  1  0
 16 17  1  0
 17 22  1  0
 17 18  2  0
 18 23  1  0
 19 11  2  0
 19 18  1  0
 21 16  1  0
 24 29  2  0
 24 25  1  0
 25 26  2  0
 26 27  1  0
 26 31  1  0
 27 32  1  0
 28  1  1  0
 28 27  2  0
 29 28  1  0
 30 25  1  0
 33 29  1  0
 34 35  1  0
 35 24  1  0
M  END
>  <minimizedAffinity>  (88) 
-8.59313774

$$$$

     RDKit          3D

 43 45  0  0  0  0  0  0  0  0999 V2000
  -21.2280  -31.2240   53.5050 N   0  0  0  0  0  0  0  0  0  0  0  0
  -22.6570  -30.8080   53.6950 C   0  0  0  0  0  0  0  0  0  0  0  0
  -23.7670  -31.7180   53.2620 N   0  0  0  0  0  0  0  0  0  0  0  0
  -25.1950  -31.3030   53.4520 C   0  0  0  0  0  0  0  0  0  0  0  0
  -25.5130  -29.9760   54.0750 C   0  0  0  0  0  0  0  0  0  0  0  0
  -24.4030  -29.0650   54.5090 C   0  0  0  0  0  0  0  0  0  0  0  0
  -22.9750  -29.4820   54.3190 N   0  0  0  0  0  0  0  0  0  0  0  0
  -21.0200  -32.0950   53.0960 H   0  0  0  0  0  0  0  0  0  0  0  0
  -25.9590  -31.9290   53.1540 H   0  0  0  0  0  0  0  0  0  0  0  0
  -26.4960  -29.6890   54.2060 H   0  0  0  0  0  0  0  0  0  0  0  0
  -24.7210  -27.7390   55.1320 C   0  0  0  0  0  0  0  0  0  0  0  0
  -26.0930  -27.2140   55.4370 C   0  0  0  0  0  0  0  0  0  0  0  0
  -25.9440  -25.8540   56.0540 N   0  0  0  0  0  0  0  0  0  0  0  0
  -24.4790  -25.5400   56.1300 N   0  0  0  0  0  0  0  0  0  0  0  0
  -23.7350  -24.3430   56.6450 N   0  0  0  0  0  0  0  0  0  0  0  0
  -22.2360  -24.3100   56.5910 C   0  0  0  0  0  0  0  0  0  0  0  0
  -21.4810  -25.4750   56.0210 C   0  0  0  0  0  0  0  0  0  0  0  0
  -22.2250  -26.6720   55.5070 C   0  0  0  0  0  0  0  0  0  0  0  0
  -23.7230  -26.7040   55.5610 C   0  0  0  0  0  0  0  0  0  0  0  0
  -26.9830  -27.7020   55.2540 H   0  0  0  0  0  0  0  0  0  0  0  0
  -21.7250  -23.4870   56.9450 H   0  0  0  0  0  0  0  0  0  0  0  0
  -20.4500  -25.4520   55.9840 H   0  0  0  0  0  0  0  0  0  0  0  0
  -21.7050  -27.4730   55.1150 H   0  0  0  0  0  0  0  0  0  0  0  0
  -17.8980  -28.4920   54.8070 C   0  0  0  0  0  3  0  0  0  0  0  0
  -18.0430  -28.8610   53.3600 C   0  0  0  0  0  0  0  0  0  0  0  0
  -19.1540  -29.7720   52.9260 C   0  0  0  0  0  0  0  0  0  0  0  0
  -20.1180  -30.3130   53.9390 C   0  0  0  0  0  0  0  0  0  0  0  0
  -19.9720  -29.9450   55.3860 C   0  0  0  0  0  0  0  0  0  0  0  0
  -18.8620  -29.0340   55.8190 C   0  0  0  0  0  0  0  0  0  0  0  0
  -17.3790  -28.4870   52.6630 H   0  0  0  0  0  0  0  0  0  0  0  0
  -19.2540  -30.0250   51.9310 H   0  0  0  0  0  0  0  0  0  0  0  0
  -20.6350  -30.3170   56.0820 H   0  0  0  0  0  0  0  0  0  0  0  0
  -18.7620  -28.7810   56.8150 H   0  0  0  0  0  0  0  0  0  0  0  0
  -16.7870  -27.5810   55.2410 C   0  0  0  0  0  3  0  0  0  0  0  0
  -17.7250  -27.1720   54.9300 H   0  0  0  0  0  0  0  0  0  0  0  0
  -15.4720  -28.1570   55.6760 C   0  0  0  0  0  0  0  0  0  0  0  0
  -15.3260  -29.2170   55.6770 H   0  0  0  0  0  0  0  0  0  0  0  0
  -14.6800  -27.5070   55.9850 H   0  0  0  0  0  0  0  0  0  0  0  0
  -14.5330  -28.5680   55.9870 H   0  0  0  0  0  0  0  0  0  0  0  0
  -16.9920  -26.0960   55.2390 C   0  0  0  0  0  0  0  0  0  0  0  0
  -16.2000  -25.4460   55.5490 H   0  0  0  0  0  0  0  0  0  0  0  0
  -17.9300  -25.6850   54.9290 H   0  0  0  0  0  0  0  0  0  0  0  0
  -17.1380  -25.0360   55.2380 H   0  0  0  0  0  0  0  0  0  0  0  0
  1  2  1  0
  1 27  1  0
  2  7  1  0
  3  4  1  0
  3  2  2  0
  4  5  2  0
  5 10  1  0
  5  6  1  0
  6 11  1  0
  7  6  2  0
  8  1  1  0
  9  4  1  0
 11 12  1  0
 11 19  2  0
 12 13  2  0
 13 14  1  0
 14 15  1  0
 16 15  2  0
 16 21  1  0
 17 16  1  0
 18 19  1  0
 18 17  2  0
 19 14  1  0
 20 12  1  0
 22 17  1  0
 23 18  1  0
 24 29  1  0
 25 24  2  0
 26 25  1  0
 26 27  2  0
 27 28  1  0
 28 29  2  0
 28 32  1  0
 29 33  1  0
 30 25  1  0
 31 26  1  0
 34 36  1  0
 35 34  1  0
 36 37  1  0
 36 38  1  0
 36 39  1  0
 40 34  1  0
 40 41  1  0
 42 40  1  0
 43 40  1  0
M  END
>  <minimizedAffinity>  (89) 
-8.38659286

$$$$

     RDKit          3D

 48 48  0  0  0  0  0  0  0  0999 V2000
  -19.1550  -29.7240   54.9860 C   0  0  0  0  0  0  0  0  0  0  0  0
  -19.7720  -30.8520   54.2130 C   0  0  0  0  0  0  0  0  0  0  0  0
  -21.2370  -30.5660   54.0630 N   0  0  0  0  0  0  0  0  0  0  0  0
  -21.5250  -29.2600   54.7440 N   0  0  0  0  0  0  0  0  0  0  0  0
  -22.7930  -28.4780   54.9170 C   0  0  0  0  0  0  0  0  0  0  0  0
  -22.7750  -27.1760   55.6620 C   0  0  0  0  0  0  0  0  0  0  0  0
  -21.4890  -26.6560   56.2330 C   0  0  0  0  0  0  0  0  0  0  0  0
  -20.2210  -27.4380   56.0590 C   0  0  0  0  0  0  0  0  0  0  0  0
  -20.2390  -28.7400   55.3140 C   0  0  0  0  0  0  0  0  0  0  0  0
  -23.6780  -28.8350   54.5250 H   0  0  0  0  0  0  0  0  0  0  0  0
  -21.4770  -25.7600   56.7450 H   0  0  0  0  0  0  0  0  0  0  0  0
  -19.3360  -27.0810   56.4520 H   0  0  0  0  0  0  0  0  0  0  0  0
  -19.0510  -32.0550   53.6830 C   0  0  0  0  0  0  0  0  0  0  0  0
  -19.2470  -33.3940   54.3310 C   0  0  0  0  0  0  0  0  0  0  0  0
  -18.5260  -34.5970   53.8010 C   0  0  0  0  0  0  0  0  0  0  0  0
  -17.6070  -34.4620   52.6220 C   0  0  0  0  0  0  0  0  0  0  0  0
  -16.8860  -35.6650   52.0920 F   0  0  0  0  0  0  0  0  0  0  0  0
  -17.4110  -33.1240   51.9740 C   0  0  0  0  0  0  0  0  0  0  0  0
  -18.1320  -31.9200   52.5040 C   0  0  0  0  0  0  0  0  0  0  0  0
  -19.8790  -33.4870   55.1420 H   0  0  0  0  0  0  0  0  0  0  0  0
  -18.6610  -35.5180   54.2470 H   0  0  0  0  0  0  0  0  0  0  0  0
  -16.7790  -33.0310   51.1630 H   0  0  0  0  0  0  0  0  0  0  0  0
  -17.9970  -30.9990   52.0580 H   0  0  0  0  0  0  0  0  0  0  0  0
  -14.8620  -31.7760   57.0730 N   0  0  0  0  0  2  0  0  0  0  0  0
  -15.5620  -30.6280   56.4090 C   0  0  0  0  0  0  0  0  0  0  0  0
  -14.8180  -29.3570   56.1240 N   0  0  0  0  0  0  0  0  0  0  0  0
  -15.5190  -28.2090   55.4600 C   0  0  0  0  0  3  0  0  0  0  0  0
  -16.9640  -28.3320   55.0810 C   0  0  0  0  0  0  0  0  0  0  0  0
  -17.7100  -29.6020   55.3650 C   0  0  0  0  0  0  0  0  0  0  0  0
  -17.0090  -30.7500   56.0290 N   0  0  0  0  0  0  0  0  0  0  0  0
  -15.3500  -32.6090   57.2600 H   0  0  0  0  0  0  0  0  0  0  0  0
  -15.0060  -27.3350   55.2640 H   0  0  0  0  0  0  0  0  0  0  0  0
  -17.4470  -27.5420   54.6240 H   0  0  0  0  0  0  0  0  0  0  0  0
  -13.4150  -31.6540   57.4520 C   0  0  0  0  0  2  0  0  0  0  0  0
  -12.7280  -31.1710   56.7900 H   0  0  0  0  0  0  0  0  0  0  0  0
  -13.7590  -31.2570   56.5190 H   0  0  0  0  0  0  0  0  0  0  0  0
  -12.9330  -32.2080   58.7590 C   0  0  0  0  0  2  0  0  0  0  0  0
  -12.6970  -33.2480   58.8450 H   0  0  0  0  0  0  0  0  0  0  0  0
  -13.0410  -32.8530   57.9110 H   0  0  0  0  0  0  0  0  0  0  0  0
  -12.7820  -31.3050   59.9470 C   0  0  0  0  0  3  0  0  0  0  0  0
  -11.8070  -31.0220   60.2840 H   0  0  0  0  0  0  0  0  0  0  0  0
  -11.9150  -31.6660   59.4370 H   0  0  0  0  0  0  0  0  0  0  0  0
  -14.0000  -30.7980   60.6630 O   0  0  0  0  0  0  0  0  0  0  0  0
  -13.9020  -30.2140   61.4310 H   0  0  0  0  0  0  0  0  0  0  0  0
  -24.0430  -26.3930   55.8360 C   0  0  0  0  0  0  0  0  0  0  0  0
  -25.3110  -25.6110   56.0100 F   0  0  0  0  0  0  0  0  0  0  0  0
  -24.8350  -27.5650   55.3350 F   0  0  0  0  0  0  0  0  0  0  0  0
  -23.2520  -25.2220   56.3360 F   0  0  0  0  0  0  0  0  0  0  0  0
  1  9  2  0
  1 29  1  0
  2  1  1  0
  3  2  2  0
  3  4  1  0
  4  5  1  0
  4  9  1  0
  5  6  2  0
  6 45  1  0
  6  7  1  0
  7 11  1  0
  8  7  2  0
  8 12  1  0
  9  8  1  0
 10  5  1  0
 13  2  1  0
 13 14  1  0
 14 20  1  0
 15 21  1  0
 15 14  2  0
 16 15  1  0
 17 16  1  0
 18 19  1  0
 18 16  2  0
 19 13  2  0
 22 18  1  0
 23 19  1  0
 24 31  1  0
 25 24  1  0
 26 25  2  0
 27 26  1  0
 28 29  2  0
 28 27  1  0
 29 30  1  0
 30 25  2  0
 32 27  1  0
 33 28  1  0
 35 34  1  0
 36 34  1  0
 37 38  1  0
 39 37  1  0
 40 41  1  0
 40 43  1  0
 42 40  1  0
 43 44  1  0
 45 46  1  0
 45 48  1  0
 47 45  1  0
M  END
>  <minimizedAffinity>  (90) 
-9.56293583

$$$$

     RDKit          3D

 30 32  0  0  0  0  0  0  0  0999 V2000
  -16.5790  -31.0640   54.3730 N   0  0  0  0  0  0  0  0  0  0  0  0
  -17.6230  -30.0150   54.1260 C   0  0  0  0  0  0  0  0  0  0  0  0
  -18.2350  -29.6760   52.8000 N   0  0  0  0  0  0  0  0  0  0  0  0
  -19.2280  -28.5730   53.0160 C   0  0  0  0  0  0  0  0  0  0  0  0
  -19.2300  -28.2300   54.4770 C   0  0  0  0  0  0  0  0  0  0  0  0
  -18.2370  -29.1220   55.1630 O   0  0  0  0  0  0  0  0  0  0  0  0
  -16.2350  -31.6030   53.6240 H   0  0  0  0  0  0  0  0  0  0  0  0
  -19.8080  -28.1270   52.2890 H   0  0  0  0  0  0  0  0  0  0  0  0
  -15.0170  -31.7480   58.5370 C   0  0  0  0  0  0  0  0  0  0  0  0
  -16.3040  -32.3860   58.1050 C   0  0  0  0  0  0  0  0  0  0  0  0
  -16.8240  -32.1580   56.7170 C   0  0  0  0  0  0  0  0  0  0  0  0
  -16.0580  -31.2920   55.7610 C   0  0  0  0  0  0  0  0  0  0  0  0
  -14.7720  -30.6540   56.1940 C   0  0  0  0  0  0  0  0  0  0  0  0
  -14.2510  -30.8820   57.5820 C   0  0  0  0  0  0  0  0  0  0  0  0
  -14.6590  -31.9050   59.4930 H   0  0  0  0  0  0  0  0  0  0  0  0
  -16.8310  -32.9820   58.7620 H   0  0  0  0  0  0  0  0  0  0  0  0
  -17.7100  -32.5970   56.4190 H   0  0  0  0  0  0  0  0  0  0  0  0
  -14.2440  -30.0580   55.5360 H   0  0  0  0  0  0  0  0  0  0  0  0
  -13.3650  -30.4430   57.8800 H   0  0  0  0  0  0  0  0  0  0  0  0
  -20.0750  -27.1810   55.1360 C   0  0  0  0  0  0  0  0  0  0  0  0
  -19.4250  -26.0450   55.8680 C   0  0  0  0  0  0  0  0  0  0  0  0
  -20.2700  -24.9960   56.5270 C   0  0  0  0  0  0  0  0  0  0  0  0
  -21.7650  -25.0820   56.4530 C   0  0  0  0  0  0  0  0  0  0  0  0
  -22.4160  -26.2180   55.7200 C   0  0  0  0  0  0  0  0  0  0  0  0
  -21.5700  -27.2670   55.0620 C   0  0  0  0  0  0  0  0  0  0  0  0
  -18.3950  -25.9860   55.9190 H   0  0  0  0  0  0  0  0  0  0  0  0
  -19.8220  -24.2150   57.0310 H   0  0  0  0  0  0  0  0  0  0  0  0
  -22.3470  -24.3600   56.9070 H   0  0  0  0  0  0  0  0  0  0  0  0
  -23.4450  -26.2770   55.6700 H   0  0  0  0  0  0  0  0  0  0  0  0
  -22.0180  -28.0480   54.5580 H   0  0  0  0  0  0  0  0  0  0  0  0
  1 12  1  0
  2  1  1  0
  2  6  1  0
  3  4  1  0
  3  2  2  0
  4  5  2  0
  5 20  1  0
  5  6  1  0
  7  1  1  0
  8  4  1  0
  9 15  1  0
 10  9  1  0
 10 16  1  0
 11 10  2  0
 12 13  2  0
 12 11  1  0
 13 14  1  0
 14 19  1  0
 14  9  2  0
 17 11  1  0
 18 13  1  0
 20 21  1  0
 21 26  1  0
 21 22  2  0
 22 27  1  0
 23 22  1  0
 23 28  1  0
 24 23  2  0
 25 20  2  0
 25 24  1  0
 29 24  1  0
 30 25  1  0
M  END
>  <minimizedAffinity>  (91) 
-7.16004181

$$$$

     RDKit          3D

 43 44  0  0  0  0  0  0  0  0999 V2000
  -26.5610  -28.0180   55.5170 C   0  0  0  0  0  3  0  0  0  0  0  0
  -25.3630  -28.8950   55.3020 C   0  0  0  0  0  0  0  0  0  0  0  0
  -23.9840  -28.3090   55.3670 C   0  0  0  0  0  0  0  0  0  0  0  0
  -23.8030  -26.8470   55.6470 C   0  0  0  0  0  0  0  0  0  0  0  0
  -25.0010  -25.9700   55.8620 C   0  0  0  0  0  0  0  0  0  0  0  0
  -26.3800  -26.5560   55.7970 C   0  0  0  0  0  0  0  0  0  0  0  0
  -24.5140  -24.5740   56.1180 N   0  0  0  0  0  0  0  0  0  0  0  0
  -23.0150  -24.5880   56.0610 C   0  0  0  0  0  0  0  0  0  0  0  0
  -22.1150  -23.4050   56.2600 O   0  0  0  0  0  0  0  0  0  0  0  0
  -22.5760  -25.9930   55.7700 C   0  0  0  0  0  0  0  0  0  0  0  0
  -21.1580  -26.4610   55.6260 N   0  0  0  0  0  0  0  0  0  0  0  0
  -25.4880  -29.9010   55.1090 H   0  0  0  0  0  0  0  0  0  0  0  0
  -23.1590  -28.9120   55.2190 H   0  0  0  0  0  0  0  0  0  0  0  0
  -27.2040  -25.9530   55.9450 H   0  0  0  0  0  0  0  0  0  0  0  0
  -25.0790  -23.7870   56.2920 H   0  0  0  0  0  0  0  0  0  0  0  0
  -27.9410  -28.6040   55.4530 C   0  0  0  0  0  3  0  0  0  0  0  0
  -27.4050  -28.5980   56.3790 H   0  0  0  0  0  0  0  0  0  0  0  0
  -28.6910  -28.6140   54.1540 C   0  0  0  0  0  0  0  0  0  0  0  0
  -28.2430  -28.2030   53.2730 H   0  0  0  0  0  0  0  0  0  0  0  0
  -29.6750  -29.0320   54.1080 H   0  0  0  0  0  0  0  0  0  0  0  0
  -29.2270  -28.6210   53.2270 H   0  0  0  0  0  0  0  0  0  0  0  0
  -28.5690  -29.1810   56.6860 C   0  0  0  0  0  0  0  0  0  0  0  0
  -29.5530  -29.5990   56.6400 H   0  0  0  0  0  0  0  0  0  0  0  0
  -28.0340  -29.1740   57.6130 H   0  0  0  0  0  0  0  0  0  0  0  0
  -29.0180  -29.5920   57.5670 H   0  0  0  0  0  0  0  0  0  0  0  0
  -20.8700  -27.9030   55.3330 N   0  0  0  0  0  0  0  0  0  0  0  0
  -21.6020  -28.5080   55.0750 H   0  0  0  0  0  0  0  0  0  0  0  0
  -19.4670  -28.4240   55.4340 C   0  0  0  0  0  0  0  0  0  0  0  0
  -18.3070  -27.4960   55.2280 C   0  0  0  0  0  0  0  0  0  0  0  0
  -16.9030  -28.0170   55.3280 C   0  0  0  0  0  0  0  0  0  0  0  0
  -16.6610  -29.4650   55.6350 C   0  0  0  0  0  0  0  0  0  0  0  0
  -17.8210  -30.3930   55.8410 C   0  0  0  0  0  0  0  0  0  0  0  0
  -19.2240  -29.8720   55.7410 C   0  0  0  0  0  0  0  0  0  0  0  0
  -18.4730  -26.5000   55.0170 H   0  0  0  0  0  0  0  0  0  0  0  0
  -16.1040  -27.3790   55.1860 H   0  0  0  0  0  0  0  0  0  0  0  0
  -17.6550  -31.3890   56.0520 H   0  0  0  0  0  0  0  0  0  0  0  0
  -20.0230  -30.5110   55.8830 H   0  0  0  0  0  0  0  0  0  0  0  0
  -15.2570  -29.9860   55.7350 S   0  0  2  0  0  0  0  0  0  0  0  0
  -14.7290  -28.5890   55.5890 O   0  0  0  0  0  0  0  0  0  0  0  0
  -15.7860  -31.3820   55.8820 O   0  0  0  0  0  0  0  0  0  0  0  0
  -13.8540  -30.5070   55.8360 N   0  0  0  0  0  0  0  0  0  0  0  0
  -13.0660  -29.8610   55.7840 H   0  0  0  0  0  0  0  0  0  0  0  0
  -13.6880  -31.5050   55.9560 H   0  0  0  0  0  0  0  0  0  0  0  0
  1  6  1  0
  2  3  1  0
  2  1  2  0
  3  4  2  0
  4 10  1  0
  4  5  1  0
  5  7  1  0
  6  5  2  0
  6 14  1  0
  7 15  1  0
  8  7  1  0
  8  9  2  0
 10  8  1  0
 11 10  2  0
 12  2  1  0
 13  3  1  0
 16 17  1  0
 16 22  1  0
 18 16  1  0
 19 18  1  0
 20 18  1  0
 21 18  1  0
 22 25  1  0
 22 24  1  0
 23 22  1  0
 26 28  1  0
 26 11  1  0
 27 26  1  0
 28 33  1  0
 29 30  1  0
 29 28  2  0
 30 31  2  0
 31 38  1  0
 31 32  1  0
 32 36  1  0
 33 32  2  0
 33 37  1  0
 34 29  1  0
 35 30  1  0
 38 41  1  0
 38 40  2  0
 39 38  2  0
 41 43  1  0
 42 41  1  0
M  END
>  <minimizedAffinity>  (92) 
-8.8106451

$$$$

     RDKit          3D

 35 37  0  0  0  0  0  0  0  0999 V2000
  -19.9590  -26.3030   55.9310 C   0  0  0  0  0  0  0  0  0  0  0  0
  -20.1760  -24.8690   56.3150 C   0  0  0  0  0  0  0  0  0  0  0  0
  -21.5690  -24.3210   56.4130 C   0  0  0  0  0  0  0  0  0  0  0  0
  -22.7450  -25.2070   56.1260 C   0  0  0  0  0  0  0  0  0  0  0  0
  -22.5280  -26.6410   55.7420 C   0  0  0  0  0  0  0  0  0  0  0  0
  -21.1350  -27.1890   55.6440 C   0  0  0  0  0  0  0  0  0  0  0  0
  -23.8720  -27.2700   55.5200 C   0  0  0  0  0  0  0  0  0  0  0  0
  -24.1230  -28.6940   55.1210 C   0  0  0  0  0  0  0  0  0  0  0  0
  -24.9190  -26.2250   55.7670 C   0  0  0  0  0  0  0  0  0  0  0  0
  -26.4020  -26.4200   55.6580 O   0  0  0  0  0  0  0  0  0  0  0  0
  -24.2220  -24.9500   56.1420 N   0  0  0  0  0  0  0  0  0  0  0  0
  -19.3660  -24.2590   56.5120 H   0  0  0  0  0  0  0  0  0  0  0  0
  -21.7180  -23.3350   56.6770 H   0  0  0  0  0  0  0  0  0  0  0  0
  -20.9850  -28.1750   55.3800 H   0  0  0  0  0  0  0  0  0  0  0  0
  -23.3290  -29.3370   54.9750 H   0  0  0  0  0  0  0  0  0  0  0  0
  -24.6590  -24.0950   56.3600 H   0  0  0  0  0  0  0  0  0  0  0  0
  -25.5300  -29.1830   54.9350 C   0  0  0  0  0  0  0  0  0  0  0  0
  -26.1720  -29.1200   53.5810 C   0  0  0  0  0  0  0  0  0  0  0  0
  -27.5770  -29.6090   53.3950 C   0  0  0  0  0  0  0  0  0  0  0  0
  -28.2200  -29.5470   52.0410 Br  0  0  0  0  0  0  0  0  0  0  0  0
  -28.3400  -30.1610   54.5630 C   0  0  0  0  0  0  0  0  0  0  0  0
  -27.6980  -30.2230   55.9170 C   0  0  0  0  0  0  0  0  0  0  0  0
  -28.4600  -30.7750   57.0840 Br  0  0  0  0  0  0  0  0  0  0  0  0
  -26.2920  -29.7340   56.1030 C   0  0  0  0  0  0  0  0  0  0  0  0
  -25.6470  -28.7410   52.7780 H   0  0  0  0  0  0  0  0  0  0  0  0
  -25.8500  -29.7770   57.0340 H   0  0  0  0  0  0  0  0  0  0  0  0
  -29.7470  -30.6500   54.3770 O   0  0  0  0  0  0  0  0  0  0  0  0
  -30.1480  -30.6110   53.5310 H   0  0  0  0  0  0  0  0  0  0  0  0
  -18.5660  -26.8500   55.8330 C   0  0  0  0  0  0  0  0  0  0  0  0
  -18.3380  -28.3320   55.8760 O   0  0  0  0  0  0  0  0  0  0  0  0
  -17.4010  -25.9160   55.6920 O   0  0  0  0  0  0  0  0  0  0  0  0
  -16.0260  -26.3660   56.0910 C   0  0  0  0  0  0  0  0  0  0  0  0
  -15.1950  -25.6990   55.9900 H   0  0  0  0  0  0  0  0  0  0  0  0
  -15.8770  -27.3530   56.4760 H   0  0  0  0  0  0  0  0  0  0  0  0
  -15.0460  -26.6860   56.3750 H   0  0  0  0  0  0  0  0  0  0  0  0
  1  2  1  0
  2  3  2  0
  2 12  1  0
  3 13  1  0
  4 11  1  0
  4  3  1  0
  5  4  2  0
  6  5  1  0
  6  1  2  0
  7  5  1  0
  7  9  1  0
  8  7  2  0
  9 11  1  0
 10  9  2  0
 11 16  1  0
 14  6  1  0
 15  8  1  0
 17  8  1  0
 17 24  1  0
 18 17  2  0
 19 18  1  0
 19 21  2  0
 20 19  1  0
 21 22  1  0
 22 24  2  0
 22 23  1  0
 24 26  1  0
 25 18  1  0
 27 21  1  0
 28 27  1  0
 29 30  2  0
 29  1  1  0
 31 29  1  0
 31 32  1  0
 32 35  1  0
 32 34  1  0
 33 32  1  0
M  END
>  <minimizedAffinity>  (93) 
-8.18697834

$$$$

     RDKit          3D

 39 39  0  0  0  0  0  0  0  0999 V2000
  -22.6680  -27.2040   55.6190 C   0  0  0  0  0  0  0  0  0  0  0  0
  -22.1230  -25.8370   55.9080 C   0  0  0  0  0  0  0  0  0  0  0  0
  -20.6400  -25.6190   55.9710 C   0  0  0  0  0  0  0  0  0  0  0  0
  -19.7030  -26.7680   55.7450 C   0  0  0  0  0  0  0  0  0  0  0  0
  -18.2050  -26.8570   55.7440 C   0  0  0  0  0  0  0  0  0  0  0  0
  -17.2550  -25.7230   55.9900 N   0  0  0  0  0  0  0  0  0  0  0  0
  -15.7740  -25.9640   55.9580 C   0  0  0  0  0  0  0  0  0  0  0  0
  -15.2450  -27.3400   55.6800 O   0  0  0  0  0  0  0  0  0  0  0  0
  -17.8250  -28.2780   55.4550 N   0  0  0  0  0  0  0  0  0  0  0  0
  -19.0880  -29.0680   55.2770 N   0  0  0  0  0  0  0  0  0  0  0  0
  -20.2480  -28.1350   55.4560 C   0  0  0  0  0  0  0  0  0  0  0  0
  -21.7310  -28.3530   55.3930 N   0  0  0  0  0  0  0  0  0  0  0  0
  -22.7670  -25.0460   56.0640 H   0  0  0  0  0  0  0  0  0  0  0  0
  -20.2640  -24.6780   56.1690 H   0  0  0  0  0  0  0  0  0  0  0  0
  -17.6030  -24.8190   56.1720 H   0  0  0  0  0  0  0  0  0  0  0  0
  -19.1450  -30.0310   55.0780 H   0  0  0  0  0  0  0  0  0  0  0  0
  -27.1160  -27.8570   55.4310 C   0  0  0  0  0  0  0  0  0  0  0  0
  -26.5700  -26.4830   55.6800 C   0  0  0  0  0  0  0  0  0  0  0  0
  -25.0870  -26.2650   55.7430 C   0  0  0  0  0  0  0  0  0  0  0  0
  -24.1510  -27.4220   55.5570 C   0  0  0  0  0  0  0  0  0  0  0  0
  -24.6970  -28.7960   55.3080 C   0  0  0  0  0  0  0  0  0  0  0  0
  -26.1800  -29.0140   55.2450 C   0  0  0  0  0  0  0  0  0  0  0  0
  -27.2150  -25.6870   55.8080 H   0  0  0  0  0  0  0  0  0  0  0  0
  -24.7120  -25.3190   55.9140 H   0  0  0  0  0  0  0  0  0  0  0  0
  -24.0520  -29.5920   55.1800 H   0  0  0  0  0  0  0  0  0  0  0  0
  -26.5550  -29.9600   55.0740 H   0  0  0  0  0  0  0  0  0  0  0  0
  -28.5990  -28.0750   55.3690 O   0  0  0  0  0  0  0  0  0  0  0  0
  -29.3830  -27.5630   54.1970 C   0  0  0  0  0  0  0  0  0  0  0  0
  -28.8850  -27.0420   53.4060 H   0  0  0  0  0  0  0  0  0  0  0  0
  -30.4410  -27.7190   54.1520 H   0  0  0  0  0  0  0  0  0  0  0  0
  -29.9430  -27.1980   53.3610 H   0  0  0  0  0  0  0  0  0  0  0  0
  -14.8240  -24.8300   56.2030 C   0  0  0  0  0  1  0  0  0  0  0  0
  -13.9290  -24.0620   57.1310 C   0  0  0  0  0  3  0  0  0  0  0  0
  -14.0710  -23.6330   55.7000 C   0  0  0  0  0  2  0  0  0  0  0  0
  -14.1450  -24.0210   56.3780 H   0  0  0  0  0  0  0  0  0  0  0  0
  -13.5030  -23.9230   58.1010 H   0  0  0  0  0  0  0  0  0  0  0  0
  -13.3010  -23.2020   57.0350 H   0  0  0  0  0  0  0  0  0  0  0  0
  -13.8200  -22.9640   54.9040 H   0  0  0  0  0  0  0  0  0  0  0  0
  -14.6230  -23.9900   54.8540 H   0  0  0  0  0  0  0  0  0  0  0  0
  1  2  1  0
  2  3  2  0
  2 13  1  0
  3 14  1  0
  4  3  1  0
  5  4  1  0
  5  6  1  0
  6 15  1  0
  7  6  1  0
  7 32  1  0
  8  7  2  0
  9  5  2  0
 10  9  1  0
 10 11  1  0
 11  4  2  0
 12 11  1  0
 12  1  2  0
 16 10  1  0
 17 18  1  0
 18 19  2  0
 18 23  1  0
 19 24  1  0
 20  1  1  0
 20 19  1  0
 21 20  2  0
 22 21  1  0
 22 17  2  0
 25 21  1  0
 26 22  1  0
 27 17  1  0
 28 27  1  0
 29 28  1  0
 30 28  1  0
 31 28  1  0
 33 36  1  0
 35 33  1  0
 37 33  1  0
 38 34  1  0
 39 34  1  0
M  END
>  <minimizedAffinity>  (94) 
-8.03959274

$$$$

     RDKit          3D

 59 58  0  0  0  0  0  0  0  0999 V2000
  -19.1820  -30.7290   54.4270 C   0  0  0  0  0  0  0  0  0  0  0  0
  -20.6460  -30.4150   54.5230 C   0  0  0  0  0  0  0  0  0  0  0  0
  -21.4100  -31.6610   54.1910 N   0  0  0  0  0  0  0  0  0  0  0  0
  -20.4200  -32.7460   53.8880 C   0  0  0  0  0  0  0  0  0  0  0  0
  -19.0430  -32.1710   54.0350 N   0  0  0  0  0  0  0  0  0  0  0  0
  -20.6460  -33.7180   53.6260 H   0  0  0  0  0  0  0  0  0  0  0  0
  -17.7520  -32.9060   53.8250 C   0  0  0  0  0  2  0  0  0  0  0  0
  -17.1360  -33.6770   54.9540 C   0  0  0  0  0  2  0  0  0  0  0  0
  -15.8450  -34.4130   54.7450 C   0  0  0  0  0  2  0  0  0  0  0  0
  -15.1720  -34.3760   53.4050 N   0  0  0  0  0  0  0  0  0  0  0  0
  -15.7880  -33.6050   52.2760 C   0  0  0  0  0  0  0  0  0  0  0  0
  -17.0780  -32.8700   52.4850 C   0  0  0  0  0  2  0  0  0  0  0  0
  -16.8320  -33.4300   53.6750 H   0  0  0  0  0  0  0  0  0  0  0  0
  -17.6170  -33.7030   55.9100 H   0  0  0  0  0  0  0  0  0  0  0  0
  -16.6960  -34.2270   55.7600 H   0  0  0  0  0  0  0  0  0  0  0  0
  -15.4060  -34.9620   55.5500 H   0  0  0  0  0  0  0  0  0  0  0  0
  -14.9250  -34.9360   54.5950 H   0  0  0  0  0  0  0  0  0  0  0  0
  -14.2940  -34.8760   53.2630 H   0  0  0  0  0  0  0  0  0  0  0  0
  -15.3060  -33.5800   51.3200 H   0  0  0  0  0  0  0  0  0  0  0  0
  -16.2270  -33.0550   51.4700 H   0  0  0  0  0  0  0  0  0  0  0  0
  -17.5180  -32.3200   51.6810 H   0  0  0  0  0  0  0  0  0  0  0  0
  -17.9990  -32.3460   52.6360 H   0  0  0  0  0  0  0  0  0  0  0  0
  -21.2400  -29.0870   54.8890 C   0  0  0  0  0  0  0  0  0  0  0  0
  -22.3860  -28.5340   54.0950 C   0  0  0  0  0  0  0  0  0  0  0  0
  -22.9800  -27.2060   54.4600 C   0  0  0  0  0  0  0  0  0  0  0  0
  -22.4280  -26.4310   55.6190 C   0  0  0  0  0  0  0  0  0  0  0  0
  -23.0220  -25.1020   55.9840 F   0  0  0  0  0  0  0  0  0  0  0  0
  -21.2810  -26.9830   56.4130 C   0  0  0  0  0  0  0  0  0  0  0  0
  -20.6870  -28.3110   56.0480 C   0  0  0  0  0  0  0  0  0  0  0  0
  -22.7660  -29.0680   53.2980 H   0  0  0  0  0  0  0  0  0  0  0  0
  -23.7690  -26.8260   53.9140 H   0  0  0  0  0  0  0  0  0  0  0  0
  -20.9010  -26.4490   57.2100 H   0  0  0  0  0  0  0  0  0  0  0  0
  -19.8980  -28.6910   56.5940 H   0  0  0  0  0  0  0  0  0  0  0  0
  -15.8560  -29.1610   55.9200 C   0  0  0  0  0  0  0  0  0  0  0  0
  -15.8030  -27.8550   55.1840 N   0  0  0  0  0  0  0  0  0  0  0  0
  -16.8770  -27.5070   54.1950 C   0  0  0  0  0  3  0  0  0  0  0  0
  -18.0030  -28.4650   53.9430 C   0  0  0  0  0  0  0  0  0  0  0  0
  -18.0560  -29.7710   54.6790 C   0  0  0  0  0  0  0  0  0  0  0  0
  -16.9820  -30.1190   55.6680 N   0  0  0  0  0  0  0  0  0  0  0  0
  -16.8400  -26.6090   53.6880 H   0  0  0  0  0  0  0  0  0  0  0  0
  -18.7420  -28.2260   53.2630 H   0  0  0  0  0  0  0  0  0  0  0  0
  -14.7830  -29.5080   56.9080 O   0  0  0  0  0  0  0  0  0  0  0  0
  -13.0340  -33.6540   56.9650 C   0  0  0  0  0  0  0  0  0  0  0  0
  -12.6570  -32.6960   55.8740 C   0  0  0  0  0  0  0  0  0  0  0  0
  -13.2400  -31.3140   55.8550 C   0  0  0  0  0  0  0  0  0  0  0  0
  -14.2000  -30.8900   56.9270 C   0  0  0  0  0  0  0  0  0  0  0  0
  -14.5770  -31.8480   58.0180 C   0  0  0  0  0  0  0  0  0  0  0  0
  -13.9930  -33.2300   58.0370 C   0  0  0  0  0  0  0  0  0  0  0  0
  -11.9960  -32.9870   55.1360 H   0  0  0  0  0  0  0  0  0  0  0  0
  -12.9800  -30.6550   55.1050 H   0  0  0  0  0  0  0  0  0  0  0  0
  -15.2370  -31.5570   58.7560 H   0  0  0  0  0  0  0  0  0  0  0  0
  -14.2530  -33.8900   58.7880 H   0  0  0  0  0  0  0  0  0  0  0  0
  -12.4500  -35.0360   56.9840 S   0  0  1  0  0  0  0  0  0  0  0  0
  -12.0740  -34.8970   55.5380 O   0  0  0  0  0  0  0  0  0  0  0  0
  -12.8270  -35.1750   58.4290 O   0  0  0  0  0  0  0  0  0  0  0  0
  -11.8670  -36.4180   57.0030 C   0  0  0  0  0  0  0  0  0  0  0  0
  -11.8920  -36.9970   57.9030 H   0  0  0  0  0  0  0  0  0  0  0  0
  -11.4270  -36.8250   56.1160 H   0  0  0  0  0  0  0  0  0  0  0  0
  -11.4510  -37.4040   57.0160 H   0  0  0  0  0  0  0  0  0  0  0  0
  1  2  2  0
  1 38  1  0
  2 23  1  0
  3  2  1  0
  4  5  1  0
  4  3  2  0
  5  1  1  0
  6  4  1  0
  7  5  1  0
  8 15  1  0
  8 14  1  0
  9 16  1  0
 11 10  2  0
 12 22  1  0
 13  7  1  0
 17  9  1  0
 18 10  1  0
 19 11  1  0
 20 11  1  0
 21 12  1  0
 23 29  1  0
 24 25  1  0
 24 23  2  0
 25 26  2  0
 26 27  1  0
 26 28  1  0
 28 32  1  0
 29 28  2  0
 29 33  1  0
 30 24  1  0
 31 25  1  0
 34 42  1  0
 35 34  2  0
 36 35  1  0
 37 36  1  0
 37 38  2  0
 38 39  1  0
 39 34  2  0
 40 36  1  0
 41 37  1  0
 42 46  1  0
 43 53  1  0
 43 48  1  0
 44 43  2  0
 45 44  1  0
 45 46  2  0
 46 47  1  0
 47 48  2  0
 47 51  1  0
 48 52  1  0
 49 44  1  0
 50 45  1  0
 53 56  1  0
 53 55  2  0
 54 53  2  0
 56 59  1  0
 56 57  1  0
 58 56  1  0
M  END
>  <minimizedAffinity>  (95) 
-8.14579296

$$$$

     RDKit          3D

 47 47  0  0  0  0  0  0  0  0999 V2000
  -25.4270  -29.2750   54.2670 C   0  0  0  0  0  0  0  0  0  0  0  0
  -26.8700  -29.6370   54.4580 C   0  0  0  0  0  0  0  0  0  0  0  0
  -27.8000  -28.6750   55.1370 C   0  0  0  0  0  0  0  0  0  0  0  0
  -27.2870  -27.3530   55.6240 C   0  0  0  0  0  0  0  0  0  0  0  0
  -25.8440  -26.9910   55.4330 C   0  0  0  0  0  0  0  0  0  0  0  0
  -24.9140  -27.9530   54.7540 C   0  0  0  0  0  0  0  0  0  0  0  0
  -27.2240  -30.5470   54.1230 H   0  0  0  0  0  0  0  0  0  0  0  0
  -28.7940  -28.9240   55.2690 H   0  0  0  0  0  0  0  0  0  0  0  0
  -23.9210  -27.7040   54.6220 H   0  0  0  0  0  0  0  0  0  0  0  0
  -25.3310  -25.6690   55.9200 N   0  0  0  0  0  0  0  0  0  0  0  0
  -23.8550  -25.4410   56.0560 C   0  0  0  0  0  0  0  0  0  0  0  0
  -23.1980  -24.1780   56.5270 N   0  0  0  0  0  0  0  0  0  0  0  0
  -21.7130  -24.3930   56.5070 C   0  0  0  0  0  0  0  0  0  0  0  0
  -21.4530  -25.7890   56.0230 C   0  0  0  0  0  0  0  0  0  0  0  0
  -22.7770  -26.4360   55.7440 O   0  0  0  0  0  0  0  0  0  0  0  0
  -25.9630  -24.9500   56.1500 H   0  0  0  0  0  0  0  0  0  0  0  0
  -20.9970  -23.7020   56.7790 H   0  0  0  0  0  0  0  0  0  0  0  0
  -20.1060  -26.4250   55.8490 C   0  0  0  0  0  0  0  0  0  0  0  0
  -19.9660  -27.9160   55.9180 C   0  0  0  0  0  0  0  0  0  0  0  0
  -18.6190  -28.5520   55.7440 C   0  0  0  0  0  0  0  0  0  0  0  0
  -17.4120  -27.6970   55.5010 C   0  0  0  0  0  0  0  0  0  0  0  0
  -17.5510  -26.2050   55.4320 C   0  0  0  0  0  0  0  0  0  0  0  0
  -18.8980  -25.5690   55.6060 C   0  0  0  0  0  0  0  0  0  0  0  0
  -20.7970  -28.5050   56.0860 H   0  0  0  0  0  0  0  0  0  0  0  0
  -18.5230  -29.5790   55.7920 H   0  0  0  0  0  0  0  0  0  0  0  0
  -16.4850  -28.1340   55.3810 H   0  0  0  0  0  0  0  0  0  0  0  0
  -18.9940  -24.5420   55.5580 H   0  0  0  0  0  0  0  0  0  0  0  0
  -16.3430  -25.3490   55.1880 O   0  0  0  0  0  0  0  0  0  0  0  0
  -15.1310  -25.4980   56.0580 C   0  0  0  0  0  0  0  0  0  0  0  0
  -15.1270  -26.2150   56.8530 H   0  0  0  0  0  0  0  0  0  0  0  0
  -14.2700  -24.8880   55.8850 H   0  0  0  0  0  0  0  0  0  0  0  0
  -14.2660  -25.6040   56.6800 H   0  0  0  0  0  0  0  0  0  0  0  0
  -24.4970  -30.2360   53.5880 S   0  0  0  0  0  3  0  0  0  0  0  0
  -25.1420  -31.3770   54.3190 O   0  0  0  0  0 15  0  0  0  0  0  0
  -23.8530  -29.0960   52.8560 O   0  0  0  0  0  0  0  0  0  0  0  0
  -23.5670  -31.1980   52.9090 C   0  0  0  0  0  3  0  0  0  0  0  0
  -23.8650  -31.6800   52.0010 H   0  0  0  0  0  0  0  0  0  0  0  0
  -24.5290  -30.9940   52.4850 H   0  0  0  0  0  0  0  0  0  0  0  0
  -22.2190  -31.4830   53.5020 C   0  0  0  0  0  0  0  0  0  0  0  0
  -21.5560  -32.1690   53.0180 H   0  0  0  0  0  0  0  0  0  0  0  0
  -21.9210  -31.0010   54.4100 H   0  0  0  0  0  0  0  0  0  0  0  0
  -21.2580  -31.6860   53.9250 H   0  0  0  0  0  0  0  0  0  0  0  0
  -28.2180  -26.3910   56.3030 O   0  0  0  0  0  0  0  0  0  0  0  0
  -29.6430  -26.7810   56.5590 C   0  0  0  0  0  0  0  0  0  0  0  0
  -30.3070  -26.0960   57.0430 H   0  0  0  0  0  0  0  0  0  0  0  0
  -29.9970  -27.7450   56.2570 H   0  0  0  0  0  0  0  0  0  0  0  0
  -30.6600  -27.0600   56.7420 H   0  0  0  0  0  0  0  0  0  0  0  0
  1  2  2  0
  1  6  1  0
  2  3  1  0
  3  8  1  0
  3  4  2  0
  4 43  1  0
  5  4  1  0
  5 10  1  0
  6  5  2  0
  7  2  1  0
  9  6  1  0
 10 11  1  0
 10 16  1  0
 11 12  2  0
 13 12  1  0
 13 17  1  0
 14 13  2  0
 15 14  1  0
 15 11  1  0
 18 19  1  0
 18 14  1  0
 19 24  1  0
 20 25  1  0
 20 19  2  0
 21 20  1  0
 22 21  2  0
 22 23  1  0
 23 18  2  0
 26 21  1  0
 27 23  1  0
 28 22  1  0
 28 29  1  0
 29 32  1  0
 29 30  1  0
 31 29  1  0
 33  1  1  0
 35 33  2  0
 36 39  1  0
 37 36  1  0
 38 36  1  0
 39 42  1  0
 39 41  1  0
 40 39  1  0
 43 44  1  0
 44 47  1  0
 44 45  1  0
 46 44  1  0
M  END
>  <minimizedAffinity>  (96) 
-8.31929016

$$$$

     RDKit          3D

 49 52  0  0  0  0  0  0  0  0999 V2000
  -22.0640  -27.3070   55.3960 N   0  0  0  0  0  0  0  0  0  0  0  0
  -23.3920  -26.6510   55.6310 C   0  0  0  0  0  0  0  0  0  0  0  0
  -23.6100  -25.2550   56.1340 C   0  0  0  0  0  0  0  0  0  0  0  0
  -22.5370  -24.2700   56.4910 O   0  0  0  0  0  0  0  0  0  0  0  0
  -25.0880  -25.0170   56.2180 N   0  0  0  0  0  0  0  0  0  0  0  0
  -25.7850  -26.2670   55.7670 C   0  0  0  0  0  0  0  0  0  0  0  0
  -27.2380  -26.6150   55.6390 C   0  0  0  0  0  0  0  0  0  0  0  0
  -27.6430  -27.9740   55.1490 C   0  0  0  0  0  0  0  0  0  0  0  0
  -26.5950  -28.9830   54.7860 C   0  0  0  0  0  0  0  0  0  0  0  0
  -25.1420  -28.6350   54.9140 C   0  0  0  0  0  0  0  0  0  0  0  0
  -24.7370  -27.2760   55.4040 C   0  0  0  0  0  0  0  0  0  0  0  0
  -25.5250  -24.1870   56.5170 H   0  0  0  0  0  0  0  0  0  0  0  0
  -27.9590  -25.9200   55.8890 H   0  0  0  0  0  0  0  0  0  0  0  0
  -28.6430  -28.2140   55.0610 H   0  0  0  0  0  0  0  0  0  0  0  0
  -26.8740  -29.9180   54.4490 H   0  0  0  0  0  0  0  0  0  0  0  0
  -24.0940  -29.6450   54.5510 C   0  0  0  0  0  0  0  0  0  0  0  0
  -23.7260  -30.3240   55.2920 H   0  0  0  0  0  0  0  0  0  0  0  0
  -23.3460  -30.3650   54.2920 H   0  0  0  0  0  0  0  0  0  0  0  0
  -23.5610  -29.7020   53.1500 C   0  0  0  0  0  0  0  0  0  0  0  0
  -24.2140  -29.5230   52.3210 H   0  0  0  0  0  0  0  0  0  0  0  0
  -23.1810  -29.7430   52.1500 H   0  0  0  0  0  0  0  0  0  0  0  0
  -22.1130  -30.0110   52.9100 C   0  0  0  0  0  0  0  0  0  0  0  0
  -21.5910  -31.3960   53.1540 C   0  0  0  0  0  0  0  0  0  0  0  0
  -20.1430  -31.7050   52.9140 C   0  0  0  0  0  0  0  0  0  0  0  0
  -19.2160  -30.6290   52.4310 N   0  0  0  0  0  0  0  0  0  0  0  0
  -19.7380  -29.2440   52.1880 C   0  0  0  0  0  0  0  0  0  0  0  0
  -21.1860  -28.9350   52.4270 C   0  0  0  0  0  0  0  0  0  0  0  0
  -22.2290  -32.1370   53.4860 H   0  0  0  0  0  0  0  0  0  0  0  0
  -19.7840  -32.6580   53.0820 H   0  0  0  0  0  0  0  0  0  0  0  0
  -19.1010  -28.5030   51.8550 H   0  0  0  0  0  0  0  0  0  0  0  0
  -21.5450  -27.9820   52.2590 H   0  0  0  0  0  0  0  0  0  0  0  0
  -20.7970  -26.5530   55.6700 N   0  0  0  0  0  0  0  0  0  0  0  0
  -20.8270  -25.5830   55.8380 H   0  0  0  0  0  0  0  0  0  0  0  0
  -16.8530  -28.7210   55.7200 C   0  0  0  0  0  0  0  0  0  0  0  0
  -16.8850  -27.2230   55.6740 C   0  0  0  0  0  0  0  0  0  0  0  0
  -18.1990  -26.4990   55.6570 C   0  0  0  0  0  0  0  0  0  0  0  0
  -19.4820  -27.2760   55.6860 C   0  0  0  0  0  0  0  0  0  0  0  0
  -19.4510  -28.7750   55.7330 C   0  0  0  0  0  0  0  0  0  0  0  0
  -18.1370  -29.4980   55.7490 C   0  0  0  0  0  0  0  0  0  0  0  0
  -16.0020  -26.6880   55.6540 H   0  0  0  0  0  0  0  0  0  0  0  0
  -18.2210  -25.4690   55.6260 H   0  0  0  0  0  0  0  0  0  0  0  0
  -20.3340  -29.3100   55.7530 H   0  0  0  0  0  0  0  0  0  0  0  0
  -18.1150  -30.5290   55.7810 H   0  0  0  0  0  0  0  0  0  0  0  0
  -15.5390  -29.4440   55.7370 S   0  0  2  0  0  0  0  0  0  0  0  0
  -16.2630  -30.7580   55.7650 O   0  0  0  0  0  0  0  0  0  0  0  0
  -14.8160  -28.1320   55.7090 O   0  0  0  0  0  0  0  0  0  0  0  0
  -14.2260  -30.1690   55.7540 N   0  0  0  0  0  0  0  0  0  0  0  0
  -14.2060  -31.1880   55.7770 H   0  0  0  0  0  0  0  0  0  0  0  0
  -13.3530  -29.6410   55.7430 H   0  0  0  0  0  0  0  0  0  0  0  0
  1  2  2  0
  1 32  1  0
  2  3  1  0
  3  5  1  0
  3  4  2  0
  5 12  1  0
  6  5  1  0
  7  6  1  0
  7 13  1  0
  8  7  2  0
  9 10  2  0
  9  8  1  0
 10 11  1  0
 11  2  1  0
 11  6  2  0
 14  8  1  0
 15  9  1  0
 16 10  1  0
 16 17  1  0
 18 16  1  0
 19 16  1  0
 20 19  1  0
 21 19  1  0
 22 19  1  0
 22 23  1  0
 23 28  1  0
 24 29  1  0
 24 23  2  0
 25 24  1  0
 26 27  1  0
 26 25  2  0
 27 22  2  0
 30 26  1  0
 31 27  1  0
 32 37  1  0
 32 33  1  0
 34 44  1  0
 34 39  1  0
 35 34  2  0
 36 35  1  0
 36 37  2  0
 37 38  1  0
 38 39  2  0
 38 42  1  0
 39 43  1  0
 40 35  1  0
 41 36  1  0
 44 47  1  0
 44 45  2  0
 46 44  2  0
 47 48  1  0
 49 47  1  0
M  END
>  <minimizedAffinity>  (97) 
-9.56728745

$$$$

     RDKit          3D

 49 52  0  0  0  0  0  0  0  0999 V2000
  -22.5440  -26.0690   55.7330 C   0  0  0  0  0  0  0  0  0  0  0  0
  -21.2010  -25.7340   56.3120 C   0  0  0  0  0  0  0  0  0  0  0  0
  -20.0460  -26.6710   56.1180 C   0  0  0  0  0  0  0  0  0  0  0  0
  -20.2330  -27.9430   55.3450 C   0  0  0  0  0  0  0  0  0  0  0  0
  -19.2870  -29.0520   54.9930 C   0  0  0  0  0  0  0  0  0  0  0  0
  -20.0450  -30.0730   54.1960 C   0  0  0  0  0  0  0  0  0  0  0  0
  -21.4590  -29.5950   54.0560 N   0  0  0  0  0  0  0  0  0  0  0  0
  -21.5760  -28.2780   54.7660 N   0  0  0  0  0  0  0  0  0  0  0  0
  -22.7310  -27.3410   54.9600 C   0  0  0  0  0  0  0  0  0  0  0  0
  -21.0720  -24.8590   56.8440 H   0  0  0  0  0  0  0  0  0  0  0  0
  -19.1220  -26.4410   56.5160 H   0  0  0  0  0  0  0  0  0  0  0  0
  -23.6550  -27.5710   54.5610 H   0  0  0  0  0  0  0  0  0  0  0  0
  -19.4860  -31.3480   53.6380 C   0  0  0  0  0  0  0  0  0  0  0  0
  -20.0490  -32.6680   54.0750 C   0  0  0  0  0  0  0  0  0  0  0  0
  -19.4900  -33.9440   53.5170 C   0  0  0  0  0  0  0  0  0  0  0  0
  -18.3690  -33.8990   52.5220 C   0  0  0  0  0  0  0  0  0  0  0  0
  -17.8100  -35.1740   51.9630 F   0  0  0  0  0  0  0  0  0  0  0  0
  -17.8060  -32.5790   52.0850 C   0  0  0  0  0  0  0  0  0  0  0  0
  -18.3650  -31.3030   52.6430 C   0  0  0  0  0  0  0  0  0  0  0  0
  -20.8200  -32.6990   54.7600 H   0  0  0  0  0  0  0  0  0  0  0  0
  -19.8770  -34.8520   53.8180 H   0  0  0  0  0  0  0  0  0  0  0  0
  -17.0340  -32.5480   51.4000 H   0  0  0  0  0  0  0  0  0  0  0  0
  -17.9780  -30.3950   52.3420 H   0  0  0  0  0  0  0  0  0  0  0  0
  -17.8370  -29.1280   55.3710 C   0  0  0  0  0  0  0  0  0  0  0  0
  -16.9450  -27.9410   55.1610 C   0  0  0  0  0  0  0  0  0  0  0  0
  -15.4950  -28.0170   55.5390 C   0  0  0  0  0  0  0  0  0  0  0  0
  -14.9390  -29.2790   56.1280 N   0  0  0  0  0  0  0  0  0  0  0  0
  -15.8310  -30.4660   56.3380 C   0  0  0  0  0  0  0  0  0  0  0  0
  -15.2740  -31.7280   56.9270 N   0  0  0  0  0  0  0  0  0  0  0  0
  -17.2810  -30.3900   55.9600 N   0  0  0  0  0  0  0  0  0  0  0  0
  -17.3270  -27.0730   54.7560 H   0  0  0  0  0  0  0  0  0  0  0  0
  -14.8800  -27.2000   55.3940 H   0  0  0  0  0  0  0  0  0  0  0  0
  -15.8600  -32.5070   57.0650 H   0  0  0  0  0  0  0  0  0  0  0  0
  -13.8240  -31.8040   57.3050 C   0  0  0  0  0  0  0  0  0  0  0  0
  -13.0750  -31.4660   56.6210 H   0  0  0  0  0  0  0  0  0  0  0  0
  -12.7900  -31.8580   57.5750 H   0  0  0  0  0  0  0  0  0  0  0  0
  -13.4260  -32.3530   58.6430 C   0  0  0  0  0  0  0  0  0  0  0  0
  -13.4680  -33.4070   58.8230 H   0  0  0  0  0  0  0  0  0  0  0  0
  -13.1420  -32.7450   59.5980 H   0  0  0  0  0  0  0  0  0  0  0  0
  -12.9690  -31.4250   59.7290 C   0  0  0  0  0  0  0  0  0  0  0  0
  -11.9260  -31.2230   59.8560 H   0  0  0  0  0  0  0  0  0  0  0  0
  -12.6420  -30.7620   60.5040 H   0  0  0  0  0  0  0  0  0  0  0  0
  -13.9730  -30.7790   60.6370 O   0  0  0  0  0  0  0  0  0  0  0  0
  -13.6780  -30.1790   61.3390 H   0  0  0  0  0  0  0  0  0  0  0  0
  -25.1010  -25.6150   55.7030 N   0  0  0  0  0  0  0  0  0  0  0  0
  -23.6990  -25.1320   55.9260 C   0  0  0  0  0  0  0  0  0  0  0  0
  -23.4510  -23.7130   56.3440 O   0  0  0  0  0  0  0  0  0  0  0  0
  -25.2640  -26.5460   55.4290 H   0  0  0  0  0  0  0  0  0  0  0  0
  -25.8590  -25.0000   55.8300 H   0  0  0  0  0  0  0  0  0  0  0  0
  1 46  1  0
  1  2  1  0
  2 10  1  0
  3  2  2  0
  3 11  1  0
  4  3  1  0
  5  4  2  0
  5 24  1  0
  6  5  1  0
  7  6  2  0
  7  8  1  0
  8  9  1  0
  8  4  1  0
  9  1  2  0
 12  9  1  0
 13 14  1  0
 13  6  1  0
 14 20  1  0
 15 21  1  0
 15 14  2  0
 16 15  1  0
 17 16  1  0
 18 16  2  0
 18 19  1  0
 19 13  2  0
 22 18  1  0
 23 19  1  0
 24 30  2  0
 25 24  1  0
 25 26  2  0
 26 27  1  0
 27 28  2  0
 28 29  1  0
 29 33  1  0
 29 34  1  0
 30 28  1  0
 31 25  1  0
 32 26  1  0
 34 36  1  0
 34 37  1  0
 35 34  1  0
 37 38  1  0
 37 39  1  0
 37 40  1  0
 40 41  1  0
 40 42  1  0
 40 43  1  0
 43 44  1  0
 45 49  1  0
 45 46  1  0
 46 47  2  0
 48 45  1  0
M  END
>  <minimizedAffinity>  (98) 
-9.84068012

$$$$

     RDKit          3D

 51 47  0  0  0  0  0  0  0  0999 V2000
  -19.5880  -27.7950   54.9440 C   0  0  0  0  0  0  0  0  0  0  0  0
  -20.2520  -26.6800   55.6970 C   0  0  0  0  0  0  0  0  0  0  0  0
  -19.1800  -25.8530   56.3410 N   0  0  0  0  0  0  0  0  0  0  0  0
  -17.8530  -26.4560   55.9870 C   0  0  0  0  0  0  0  0  0  0  0  0
  -18.1050  -27.6570   55.1230 N   0  0  0  0  0  0  0  0  0  0  0  0
  -16.9290  -26.1070   56.2850 H   0  0  0  0  0  0  0  0  0  0  0  0
  -21.4280  -32.6390   54.5600 N   0  0  0  0  0  0  0  0  0  0  0  0
  -21.2040  -31.2830   53.9590 C   0  0  0  0  0  0  0  0  0  0  0  0
  -21.6770  -30.9930   52.5660 N   0  0  0  0  0  0  0  0  0  0  0  0
  -21.4530  -29.6370   51.9650 C   0  0  0  0  0  3  0  0  0  0  0  0
  -20.7570  -28.5710   52.7570 C   0  0  0  0  0  0  0  0  0  0  0  0
  -20.2840  -28.8610   54.1510 C   0  0  0  0  0  0  0  0  0  0  0  0
  -20.5080  -30.2170   54.7520 N   0  0  0  0  0  2  0  0  0  0  0  0
  -21.8850  -33.3390   54.0400 H   0  0  0  0  0  0  0  0  0  0  0  0
  -21.1170  -32.8290   55.4750 H   0  0  0  0  0  0  0  0  0  0  0  0
  -21.7790  -29.4380   51.0060 H   0  0  0  0  0  0  0  0  0  0  0  0
  -20.6030  -27.6380   52.3440 H   0  0  0  0  0  0  0  0  0  0  0  0
  -21.7290  -26.4360   55.7880 C   0  0  0  0  0  0  0  0  0  0  0  0
  -22.2420  -25.0830   56.1850 C   0  0  0  0  0  0  0  0  0  0  0  0
  -23.7190  -24.8390   56.2760 C   0  0  0  0  0  0  0  0  0  0  0  0
  -24.6830  -25.9470   55.9720 C   0  0  0  0  0  0  0  0  0  0  0  0
  -26.1610  -25.7020   56.0640 F   0  0  0  0  0  0  0  0  0  0  0  0
  -24.1700  -27.2990   55.5760 C   0  0  0  0  0  0  0  0  0  0  0  0
  -22.6930  -27.5440   55.4840 C   0  0  0  0  0  0  0  0  0  0  0  0
  -21.5800  -24.3210   56.3940 H   0  0  0  0  0  0  0  0  0  0  0  0
  -24.0720  -23.9080   56.5490 H   0  0  0  0  0  0  0  0  0  0  0  0
  -24.8340  -28.0620   55.3660 H   0  0  0  0  0  0  0  0  0  0  0  0
  -22.3400  -28.4740   55.2110 H   0  0  0  0  0  0  0  0  0  0  0  0
  -17.0590  -28.5600   54.5410 C   0  0  0  0  0  0  0  0  0  0  0  0
  -16.7570  -28.4420   53.5220 H   0  0  0  0  0  0  0  0  0  0  0  0
  -16.3120  -29.2040   54.1260 H   0  0  0  0  0  0  0  0  0  0  0  0
  -16.4340  -29.6280   55.3890 C   0  0  0  0  0  0  0  0  0  0  0  0
  -16.9290  -30.5680   55.5160 H   0  0  0  0  0  0  0  0  0  0  0  0
  -15.9880  -30.3900   55.9940 H   0  0  0  0  0  0  0  0  0  0  0  0
  -15.1150  -29.3800   56.0580 C   0  0  0  0  0  3  0  0  0  0  0  0
  -14.7330  -28.3830   56.1350 H   0  0  0  0  0  0  0  0  0  0  0  0
  -14.1730  -29.2020   56.5350 H   0  0  0  0  0  0  0  0  0  0  0  0
  -14.3300  -30.5280   56.6200 N   0  0  0  0  0 15  0  0  0  0  0  0
  -13.2810  -31.2000   55.7840 C   0  0  0  0  0  2  0  0  0  0  0  0
  -12.4970  -32.3480   56.3470 C   0  0  0  0  0  2  0  0  0  0  0  0
  -12.7600  -32.8240   57.7440 O   0  0  0  0  0 15  0  0  0  0  0  0
  -13.8090  -32.1520   58.5810 C   0  0  0  0  0  2  0  0  0  0  0  0
  -14.5940  -31.0030   58.0180 C   0  0  0  0  0  2  0  0  0  0  0  0
  -13.0930  -30.8610   54.7870 H   0  0  0  0  0  0  0  0  0  0  0  0
  -12.5340  -31.6800   55.1890 H   0  0  0  0  0  0  0  0  0  0  0  0
  -11.7490  -32.8280   55.7500 H   0  0  0  0  0  0  0  0  0  0  0  0
  -11.9370  -33.1670   56.7470 H   0  0  0  0  0  0  0  0  0  0  0  0
  -13.9970  -32.4910   59.5780 H   0  0  0  0  0  0  0  0  0  0  0  0
  -14.5570  -31.6720   59.1760 H   0  0  0  0  0  0  0  0  0  0  0  0
  -15.3420  -30.5240   58.6150 H   0  0  0  0  0  0  0  0  0  0  0  0
  -15.1540  -30.1840   57.6170 H   0  0  0  0  0  0  0  0  0  0  0  0
  1  5  1  0
  1  2  2  0
  2 18  1  0
  2  3  1  0
  4  6  1  0
  4  3  2  0
  5  4  1  0
  7 15  1  0
  8  7  1  0
  8 13  1  0
  9  8  2  0
 10  9  1  0
 10 11  1  0
 11 12  2  0
 12 13  1  0
 12  1  1  0
 14  7  1  0
 16 10  1  0
 17 11  1  0
 18 19  1  0
 19 20  2  0
 19 25  1  0
 20 26  1  0
 21 22  1  0
 21 20  1  0
 23 21  2  0
 24 23  1  0
 24 18  2  0
 27 23  1  0
 28 24  1  0
 29  5  1  0
 29 32  1  0
 30 29  1  0
 31 29  1  0
 32 33  1  0
 32 34  1  0
 32 35  1  0
 35 36  1  0
 35 37  1  0
 40 47  1  0
 42 49  1  0
 42 48  1  0
 43 50  1  0
 44 39  1  0
 45 39  1  0
 46 40  1  0
 51 43  1  0
M  END
>  <minimizedAffinity>  (99) 
-9.82506847

$$$$

     RDKit          3D

 49 51  0  0  1  0  0  0  0  0999 V2000
  -17.8620  -27.1420   55.3540 C   0  0  0  0  0  3  0  0  0  0  0  0
  -18.4190  -28.5080   55.0820 C   0  0  0  0  0  0  0  0  0  0  0  0
  -17.5080  -29.7000   55.0700 C   0  0  0  0  0  0  0  0  0  0  0  0
  -16.0410  -29.5260   55.3300 C   0  0  0  0  0  0  0  0  0  0  0  0
  -15.4850  -28.1600   55.6020 C   0  0  0  0  0  0  0  0  0  0  0  0
  -16.3950  -26.9680   55.6140 C   0  0  0  0  0  0  0  0  0  0  0  0
  -19.4280  -28.6280   54.9030 H   0  0  0  0  0  0  0  0  0  0  0  0
  -17.8910  -30.6400   54.8830 H   0  0  0  0  0  0  0  0  0  0  0  0
  -14.4750  -28.0400   55.7810 H   0  0  0  0  0  0  0  0  0  0  0  0
  -16.0120  -26.0280   55.8010 H   0  0  0  0  0  0  0  0  0  0  0  0
  -15.1310  -30.7180   55.3190 N   0  0  0  0  0  0  0  0  0  0  0  0
  -14.5290  -31.2150   56.6000 C   0  0  0  0  0  3  0  0  0  0  0  0
  -14.8370  -30.5190   57.8920 N   0  0  0  0  0  0  0  0  0  0  0  0
  -14.2350  -31.0150   59.1730 C   0  0  0  0  0  0  0  0  0  0  0  0
  -13.3250  -32.2080   59.1620 N   0  0  0  0  0  2  0  0  0  0  0  0
  -13.0160  -32.9030   57.8690 C   0  0  0  0  0  0  0  0  0  0  0  0
  -12.1060  -34.0950   57.8580 C   0  0  0  0  0  0  0  0  0  0  0  0
  -11.7970  -34.7910   56.5650 C   0  0  0  0  0  0  0  0  0  0  0  0
  -12.3990  -34.2940   55.2840 C   0  0  0  0  0  0  0  0  0  0  0  0
  -13.3100  -33.1020   55.2950 C   0  0  0  0  0  0  0  0  0  0  0  0
  -13.6180  -32.4070   56.5880 C   0  0  0  0  0  0  0  0  0  0  0  0
  -14.9290  -31.1740   54.4700 H   0  0  0  0  0  0  0  0  0  0  0  0
  -14.4470  -30.5370   60.0630 H   0  0  0  0  0  0  0  0  0  0  0  0
  -11.6920  -34.4370   58.7390 H   0  0  0  0  0  0  0  0  0  0  0  0
  -11.1710  -35.6110   56.5570 H   0  0  0  0  0  0  0  0  0  0  0  0
  -13.7240  -32.7610   54.4140 H   0  0  0  0  0  0  0  0  0  0  0  0
  -12.0910  -34.9900   53.9910 C   0  0  0  0  0  0  0  0  0  0  0  0
  -13.0560  -35.7900   53.1690 C   0  0  0  0  0  0  0  0  0  0  0  0
  -12.3250  -36.3020   51.9630 C   0  0  0  0  0  0  0  0  0  0  0  0
  -10.9070  -35.8180   52.0410 C   0  0  0  0  0  0  0  0  0  0  0  0
  -10.7630  -35.0070   53.2940 O   0  0  0  0  0  0  0  0  0  0  0  0
  -14.0500  -35.9600   53.3930 H   0  0  0  0  0  0  0  0  0  0  0  0
  -12.7260  -36.8850   51.2130 H   0  0  0  0  0  0  0  0  0  0  0  0
  -10.1630  -36.0090   51.3520 H   0  0  0  0  0  0  0  0  0  0  0  0
  -18.7730  -25.9500   55.3650 O   0  0  0  0  0 15  0  0  0  0  0  0
  -19.7070  -25.7310   56.5180 C   0  0  0  0  0  3  0  0  0  0  0  0
  -19.3170  -25.5790   57.5020 H   0  0  0  0  0  0  0  0  0  0  0  0
  -18.6500  -25.7350   56.6800 H   0  0  0  0  0  0  0  0  0  0  0  0
  -24.1550  -25.7180   55.8360 C   0  0  0  0  0  0  0  0  0  0  0  0
  -23.3620  -26.9660   55.5870 C   0  0  0  0  0  0  0  0  0  0  0  0
  -21.8800  -26.9710   55.8140 C   0  0  0  0  0  0  0  0  0  0  0  0
  -21.1900  -25.7270   56.2910 C   0  0  0  0  0  0  0  0  0  0  0  0
  -21.9830  -24.4780   56.5400 C   0  0  0  0  0  0  0  0  0  0  0  0
  -23.4660  -24.4740   56.3120 C   0  0  0  0  0  0  0  0  0  0  0  0
  -25.1750  -25.7150   55.6800 H   0  0  0  0  0  0  0  0  0  0  0  0
  -23.8370  -27.8230   55.2590 H   0  0  0  0  0  0  0  0  0  0  0  0
  -21.3340  -27.8300   55.6430 H   0  0  0  0  0  0  0  0  0  0  0  0
  -21.5090  -23.6220   56.8670 H   0  0  0  0  0  0  0  0  0  0  0  0
  -24.0120  -23.6150   56.4840 H   0  0  0  0  0  0  0  0  0  0  0  0
  1  6  1  0
  2  1  2  0
  3  2  1  0
  3  4  2  0
  4  5  1  0
  5  6  2  0
  5  9  1  0
  6 10  1  0
  7  2  1  0
  8  3  1  0
 11  4  1  0
 12 11  1  0
 12 13  1  0
 13 14  2  0
 14 23  1  0
 15 14  1  0
 16 15  1  0
 17 16  1  0
 17 24  1  0
 18 17  2  0
 19 20  2  0
 19 18  1  0
 20 21  1  0
 21 12  1  0
 21 16  2  0
 22 11  1  0
 25 18  1  0
 26 20  1  0
 27 19  1  0
 28 32  1  0
 28 27  2  0
 29 30  2  0
 29 28  1  0
 30 31  1  0
 31 27  1  0
 33 29  1  0
 34 30  1  0
 36 38  1  0
 36 37  1  0
 39 44  1  0
 40 41  1  0
 40 39  2  0
 41 42  2  0
 42 36  1  0
 42 43  1  0
 43 48  1  0
 44 49  1  0
 44 43  2  0
 45 39  1  0
 46 40  1  0
 47 41  1  0
M  END
>  <minimizedAffinity>  (100) 
-10.2498236

$$$$

     RDKit          3D

 66 64  0  0  0  0  0  0  0  0999 V2000
  -20.5770  -26.8380   55.7520 C   0  0  0  0  0  0  0  0  0  0  0  0
  -19.4580  -25.8510   55.9090 C   0  0  0  0  0  0  0  0  0  0  0  0
  -18.1630  -26.5990   55.7920 C   0  0  0  0  0  0  0  0  0  0  0  0
  -16.7340  -26.1490   55.8640 N   0  0  0  0  0  0  0  0  0  0  0  0
  -15.6240  -27.1460   55.7080 C   0  0  0  0  0  0  0  0  0  0  0  0
  -15.9430  -28.5940   55.4800 N   0  0  0  0  0  0  0  0  0  0  0  0
  -17.3720  -29.0440   55.4070 C   0  0  0  0  0  0  0  0  0  0  0  0
  -18.4820  -28.0470   55.5630 C   0  0  0  0  0  0  0  0  0  0  0  0
  -19.9750  -28.1950   55.5390 S   0  0  0  0  0  0  0  0  0  0  0  0
  -19.5610  -24.8370   56.0680 H   0  0  0  0  0  0  0  0  0  0  0  0
  -14.6410  -26.8360   55.7580 H   0  0  0  0  0  0  0  0  0  0  0  0
  -24.4570  -26.7360   55.6560 C   0  0  0  0  0 15  0  0  0  0  0  0
  -24.1410  -25.3360   56.0930 C   0  0  0  0  0  2  0  0  0  0  0  0
  -22.6490  -25.2030   56.1820 C   0  0  0  0  0  0  0  0  0  0  0  0
  -22.0430  -26.5220   55.8000 C   0  0  0  0  0  0  0  0  0  0  0  0
  -23.1600  -27.4690   55.4750 O   0  0  0  0  0  1  0  0  0  0  0  0
  -24.8280  -24.5940   56.2960 H   0  0  0  0  0  0  0  0  0  0  0  0
  -22.1310  -24.3550   56.4570 H   0  0  0  0  0  0  0  0  0  0  0  0
  -25.8280  -27.3040   55.4390 C   0  0  0  0  0  3  0  0  0  0  0  0
  -26.6850  -26.6660   55.4850 H   0  0  0  0  0  0  0  0  0  0  0  0
  -25.7070  -26.2610   55.6400 H   0  0  0  0  0  0  0  0  0  0  0  0
  -26.3340  -31.6950   54.5930 N   0  0  0  0  0  2  0  0  0  0  0  0
  -26.5250  -31.1730   55.9850 C   0  0  0  0  0  3  0  0  0  0  0  0
  -26.3560  -29.7090   56.2680 C   0  0  0  0  0  2  0  0  0  0  0  0
  -25.9970  -28.7670   55.1570 N   0  0  0  0  0  2  0  0  0  0  0  0
  -25.8060  -29.2900   53.7640 C   0  0  0  0  0  3  0  0  0  0  0  0
  -25.9750  -30.7530   53.4820 C   0  0  0  0  0  2  0  0  0  0  0  0
  -26.7810  -31.8440   56.7780 H   0  0  0  0  0  0  0  0  0  0  0  0
  -26.6600  -30.8000   56.9790 H   0  0  0  0  0  0  0  0  0  0  0  0
  -26.4920  -29.3370   57.2610 H   0  0  0  0  0  0  0  0  0  0  0  0
  -26.2350  -28.6660   56.4690 H   0  0  0  0  0  0  0  0  0  0  0  0
  -25.5500  -28.6180   52.9710 H   0  0  0  0  0  0  0  0  0  0  0  0
  -25.6710  -29.6630   52.7700 H   0  0  0  0  0  0  0  0  0  0  0  0
  -25.8390  -31.1260   52.4870 H   0  0  0  0  0  0  0  0  0  0  0  0
  -26.0960  -31.7970   53.2800 H   0  0  0  0  0  0  0  0  0  0  0  0
  -26.5030  -33.1580   54.3110 C   0  0  0  0  0  0  0  0  0  0  0  0
  -26.7590  -33.8300   55.1030 H   0  0  0  0  0  0  0  0  0  0  0  0
  -26.3670  -33.5310   53.3170 H   0  0  0  0  0  0  0  0  0  0  0  0
  -26.6240  -34.2020   54.1090 H   0  0  0  0  0  0  0  0  0  0  0  0
  -17.6910  -30.4920   55.1790 N   0  0  0  0  0  0  0  0  0  0  0  0
  -18.5350  -30.7460   54.7400 H   0  0  0  0  0  0  0  0  0  0  0  0
  -16.7250  -31.5510   55.6180 C   0  0  0  0  0  0  0  0  0  0  0  0
  -16.7720  -32.0730   57.0240 C   0  0  0  0  0  0  0  0  0  0  0  0
  -15.8060  -33.1320   57.4640 C   0  0  0  0  0  0  0  0  0  0  0  0
  -14.7930  -33.6710   56.4980 C   0  0  0  0  0  0  0  0  0  0  0  0
  -14.7460  -33.1500   55.0920 C   0  0  0  0  0  0  0  0  0  0  0  0
  -13.7320  -33.6880   54.1260 Cl  0  0  0  0  0  0  0  0  0  0  0  0
  -15.7120  -32.0900   54.6520 C   0  0  0  0  0  0  0  0  0  0  0  0
  -17.4690  -31.7020   57.6890 H   0  0  0  0  0  0  0  0  0  0  0  0
  -15.8380  -33.4910   58.4310 H   0  0  0  0  0  0  0  0  0  0  0  0
  -15.6800  -31.7310   53.6850 H   0  0  0  0  0  0  0  0  0  0  0  0
  -13.8260  -34.7300   56.9380 O   0  0  0  0  0  0  0  0  0  0  0  0
  -13.0420  -34.5510   58.2030 C   0  0  0  0  0  0  0  0  0  0  0  0
  -13.1400  -35.2600   58.9990 H   0  0  0  0  0  0  0  0  0  0  0  0
  -12.4820  -34.4230   59.1060 H   0  0  0  0  0  0  0  0  0  0  0  0
  -12.1190  -33.3780   58.3540 C   0  0  0  0  0  0  0  0  0  0  0  0
  -10.9230  -33.2450   57.4600 C   0  0  0  0  0  0  0  0  0  0  0  0
  -10.0000  -32.0710   57.6110 C   0  0  0  0  0  0  0  0  0  0  0  0
  -10.2750  -31.0310   58.6560 C   0  0  0  0  0  0  0  0  0  0  0  0
  -11.4720  -31.1640   59.5500 C   0  0  0  0  0  0  0  0  0  0  0  0
  -11.7460  -30.1240   60.5950 F   0  0  0  0  0  0  0  0  0  0  0  0
  -12.3940  -32.3370   59.3990 C   0  0  0  0  0  0  0  0  0  0  0  0
  -10.7340  -33.9610   56.7410 H   0  0  0  0  0  0  0  0  0  0  0  0
   -9.1770  -31.9800   56.9950 H   0  0  0  0  0  0  0  0  0  0  0  0
   -9.6400  -30.2240   58.7590 H   0  0  0  0  0  0  0  0  0  0  0  0
  -13.2180  -32.4290   60.0150 H   0  0  0  0  0  0  0  0  0  0  0  0
  1 15  1  0
  1  2  2  0
  2 10  1  0
  3  4  1  0
  3  2  1  0
  5 11  1  0
  5  4  2  0
  6  5  1  0
  7  6  2  0
  7  8  1  0
  8  3  2  0
  9  8  1  0
  9  1  1  0
 13 14  1  0
 13 17  1  0
 14 18  1  0
 15 14  2  0
 16 15  1  0
 19 20  1  0
 19 21  1  0
 22 23  1  0
 23 28  1  0
 23 29  1  0
 24 31  1  0
 24 30  1  0
 25 19  1  0
 26 25  1  0
 32 26  1  0
 33 26  1  0
 34 27  1  0
 35 27  1  0
 36 22  1  0
 36 37  1  0
 38 36  1  0
 39 36  1  0
 40  7  1  0
 40 42  1  0
 41 40  1  0
 42 43  1  0
 43 44  2  0
 43 49  1  0
 44 50  1  0
 45 52  1  0
 45 44  1  0
 46 45  2  0
 47 46  1  0
 48 46  1  0
 48 42  2  0
 51 48  1  0
 52 53  1  0
 53 56  1  0
 53 54  1  0
 53 55  1  0
 56 62  1  0
 57 58  1  0
 57 56  2  0
 58 59  2  0
 59 65  1  0
 59 60  1  0
 60 61  1  0
 62 60  2  0
 62 66  1  0
 63 57  1  0
 64 58  1  0
M  END
>  <minimizedAffinity>  (101) 
-10.8572264

$$$$

     RDKit          3D

 45 48  0  0  0  0  0  0  0  0999 V2000
  -19.8440  -29.5280   55.4310 C   0  0  0  0  0  0  0  0  0  0  0  0
  -19.9140  -30.7080   54.5090 N   0  0  0  0  0  0  0  0  0  0  0  0
  -18.6730  -31.5270   54.7090 C   0  0  0  0  0  0  0  0  0  0  0  0
  -17.8370  -30.8510   55.7560 C   0  0  0  0  0  0  0  0  0  0  0  0
  -18.5600  -29.6160   56.2020 N   0  0  0  0  0  0  0  0  0  0  0  0
  -18.2470  -28.9760   56.8820 H   0  0  0  0  0  0  0  0  0  0  0  0
  -16.5080  -31.3280   56.2660 C   0  0  0  0  0  0  0  0  0  0  0  0
  -16.4480  -32.4260   57.2860 C   0  0  0  0  0  0  0  0  0  0  0  0
  -15.1210  -32.9030   57.7960 C   0  0  0  0  0  0  0  0  0  0  0  0
  -13.8540  -32.2820   57.2860 C   0  0  0  0  0  0  0  0  0  0  0  0
  -13.9150  -31.1840   56.2670 C   0  0  0  0  0  0  0  0  0  0  0  0
  -15.2420  -30.7070   55.7560 C   0  0  0  0  0  0  0  0  0  0  0  0
  -12.5090  -30.7650   55.9520 O   0  0  0  0  0  0  0  0  0  0  0  0
  -11.5790  -31.6040   56.7780 C   0  0  0  0  0  3  0  0  0  0  0  0
  -12.4110  -32.5420   57.6020 O   0  0  0  0  0  1  0  0  0  0  0  0
  -17.3190  -32.8540   57.6360 H   0  0  0  0  0  0  0  0  0  0  0  0
  -15.0790  -33.6580   58.4970 H   0  0  0  0  0  0  0  0  0  0  0  0
  -15.2840  -29.9510   55.0550 H   0  0  0  0  0  0  0  0  0  0  0  0
  -10.5110  -31.5450   56.7780 H   0  0  0  0  0  0  0  0  0  0  0  0
  -11.0560  -32.2750   57.4260 H   0  0  0  0  0  0  0  0  0  0  0  0
  -22.9430  -26.2880   55.8200 C   0  0  0  0  0  0  0  0  0  0  0  0
  -23.3280  -27.6320   55.2770 C   0  0  0  0  0  0  0  0  0  0  0  0
  -22.2940  -28.7120   55.1470 C   0  0  0  0  0  0  0  0  0  0  0  0
  -20.8770  -28.4470   55.5610 C   0  0  0  0  0  0  0  0  0  0  0  0
  -20.4930  -27.1040   56.1040 C   0  0  0  0  0  0  0  0  0  0  0  0
  -21.5270  -26.0240   56.2330 C   0  0  0  0  0  0  0  0  0  0  0  0
  -24.3040  -27.8150   54.9920 H   0  0  0  0  0  0  0  0  0  0  0  0
  -22.5590  -29.6380   54.7730 H   0  0  0  0  0  0  0  0  0  0  0  0
  -19.5180  -26.9210   56.3880 H   0  0  0  0  0  0  0  0  0  0  0  0
  -21.2620  -25.0980   56.6070 H   0  0  0  0  0  0  0  0  0  0  0  0
  -25.4350  -25.5550   55.8920 N   0  0  0  0  0  0  0  0  0  0  0  0
  -23.9770  -25.2080   55.9490 C   0  0  0  0  0  0  0  0  0  0  0  0
  -23.5520  -23.7820   56.1360 O   0  0  0  0  0  0  0  0  0  0  0  0
  -25.7140  -26.4910   55.7700 H   0  0  0  0  0  0  0  0  0  0  0  0
  -26.1130  -24.8460   55.9770 H   0  0  0  0  0  0  0  0  0  0  0  0
  -18.3290  -32.7970   53.9890 C   0  0  0  0  0  0  0  0  0  0  0  0
  -18.7290  -34.1200   54.5710 C   0  0  0  0  0  0  0  0  0  0  0  0
  -18.3850  -35.3910   53.8510 C   0  0  0  0  0  0  0  0  0  0  0  0
  -17.6410  -35.3370   52.5500 C   0  0  0  0  0  0  0  0  0  0  0  0
  -17.2410  -34.0140   51.9680 C   0  0  0  0  0  0  0  0  0  0  0  0
  -17.5850  -32.7440   52.6880 N   0  0  0  0  0  0  0  0  0  0  0  0
  -19.2410  -34.1570   55.4660 H   0  0  0  0  0  0  0  0  0  0  0  0
  -18.6600  -36.3010   54.2510 H   0  0  0  0  0  0  0  0  0  0  0  0
  -17.4040  -36.2110   52.0550 H   0  0  0  0  0  0  0  0  0  0  0  0
  -16.7290  -33.9770   51.0740 H   0  0  0  0  0  0  0  0  0  0  0  0
  1 24  1  0
  1  5  1  0
  2  3  1  0
  2  1  2  0
  3  4  2  0
  4  5  1  0
  4  7  1  0
  5  6  1  0
  7  8  1  0
  8 16  1  0
  8  9  2  0
  9 17  1  0
 10 15  1  0
 10  9  1  0
 11 10  2  0
 12  7  2  0
 12 11  1  0
 13 11  1  0
 13 14  1  0
 14 20  1  0
 18 12  1  0
 19 14  1  0
 21 32  1  0
 21 26  1  0
 22 21  2  0
 23 22  1  0
 23 24  2  0
 24 25  1  0
 25 26  2  0
 25 29  1  0
 26 30  1  0
 27 22  1  0
 28 23  1  0
 31 32  1  0
 31 35  1  0
 32 33  2  0
 34 31  1  0
 36 37  1  0
 36  3  1  0
 37 42  1  0
 38 43  1  0
 38 37  2  0
 39 38  1  0
 40 39  2  0
 40 41  1  0
 41 36  2  0
 44 39  1  0
 45 40  1  0
M  END
>  <minimizedAffinity>  (102) 
-8.40336514

$$$$

     RDKit          3D

 37 39  0  0  0  0  0  0  0  0999 V2000
  -22.6550  -25.5080   56.1260 C   0  0  0  0  0  0  0  0  0  0  0  0
  -23.8020  -26.4320   55.8390 C   0  0  0  0  0  0  0  0  0  0  0  0
  -23.5380  -27.8350   55.3800 C   0  0  0  0  0  0  0  0  0  0  0  0
  -24.6850  -28.7580   55.0930 Cl  0  0  0  0  0  0  0  0  0  0  0  0
  -22.1280  -28.3150   55.2070 C   0  0  0  0  0  0  0  0  0  0  0  0
  -20.9810  -27.3920   55.4940 C   0  0  0  0  0  0  0  0  0  0  0  0
  -21.2450  -25.9880   55.9530 C   0  0  0  0  0  0  0  0  0  0  0  0
  -19.9220  -25.3110   56.1580 N   0  0  0  0  0  0  0  0  0  0  0  0
  -18.8410  -26.2960   55.8250 C   0  0  0  0  0  0  0  0  0  0  0  0
  -17.3640  -26.0400   55.8900 O   0  0  0  0  0  0  0  0  0  0  0  0
  -19.4950  -27.5820   55.4140 C   0  0  0  0  0  0  0  0  0  0  0  0
  -18.7880  -28.8370   54.9970 N   0  0  0  0  0  0  0  0  0  0  0  0
  -24.7730  -26.1020   55.9580 H   0  0  0  0  0  0  0  0  0  0  0  0
  -21.9460  -29.2800   54.8910 H   0  0  0  0  0  0  0  0  0  0  0  0
  -19.7870  -24.3830   56.4580 H   0  0  0  0  0  0  0  0  0  0  0  0
  -22.9190  -24.1050   56.5860 C   0  0  0  0  0  0  0  0  0  0  0  0
  -23.9260  -23.7630   56.7090 H   0  0  0  0  0  0  0  0  0  0  0  0
  -22.1010  -23.4460   56.7900 H   0  0  0  0  0  0  0  0  0  0  0  0
  -23.1070  -23.1040   56.9140 H   0  0  0  0  0  0  0  0  0  0  0  0
  -17.2890  -28.8790   54.9660 N   0  0  0  0  0  0  0  0  0  0  0  0
  -16.7880  -28.1850   54.4790 H   0  0  0  0  0  0  0  0  0  0  0  0
  -16.5540  -29.9770   55.6760 C   0  0  0  0  0  0  0  0  0  0  0  0
  -15.1060  -29.8060   56.0250 C   0  0  0  0  0  0  0  0  0  0  0  0
  -14.3700  -30.9040   56.7360 C   0  0  0  0  0  0  0  0  0  0  0  0
  -15.0840  -32.1730   57.0960 C   0  0  0  0  0  0  0  0  0  0  0  0
  -16.5330  -32.3440   56.7470 C   0  0  0  0  0  0  0  0  0  0  0  0
  -17.2680  -31.2460   56.0370 C   0  0  0  0  0  0  0  0  0  0  0  0
  -14.6140  -28.9320   55.7770 H   0  0  0  0  0  0  0  0  0  0  0  0
  -13.3740  -30.7870   56.9760 H   0  0  0  0  0  0  0  0  0  0  0  0
  -17.0240  -33.2170   56.9950 H   0  0  0  0  0  0  0  0  0  0  0  0
  -18.2640  -31.3640   55.7970 H   0  0  0  0  0  0  0  0  0  0  0  0
  -14.3490  -33.2700   57.8060 S   0  0  2  0  0  0  0  0  0  0  0  0
  -15.1030  -34.2920   57.0100 O   0  0  0  0  0  0  0  0  0  0  0  0
  -13.5930  -32.2480   58.6030 O   0  0  0  0  0  0  0  0  0  0  0  0
  -13.6120  -34.3670   58.5170 N   0  0  0  0  0  0  0  0  0  0  0  0
  -13.8070  -35.3430   58.2890 H   0  0  0  0  0  0  0  0  0  0  0  0
  -12.9170  -34.1380   59.2280 H   0  0  0  0  0  0  0  0  0  0  0  0
  1 16  1  0
  2 13  1  0
  2  1  2  0
  3  2  1  0
  4  3  1  0
  5  3  2  0
  5  6  1  0
  6  7  2  0
  7  1  1  0
  7  8  1  0
  8 15  1  0
  9 10  2  0
  9  8  1  0
 11  6  1  0
 11  9  1  0
 12 11  2  0
 14  5  1  0
 16 17  1  0
 16 18  1  0
 16 19  1  0
 20 12  1  0
 20 22  1  0
 21 20  1  0
 22 23  2  0
 22 27  1  0
 23 24  1  0
 24 29  1  0
 24 25  2  0
 25 32  1  0
 26 30  1  0
 26 25  1  0
 27 26  2  0
 28 23  1  0
 31 27  1  0
 32 35  1  0
 32 34  2  0
 33 32  2  0
 35 37  1  0
 36 35  1  0
M  END
>  <minimizedAffinity>  (103) 
-8.61028385

$$$$

     RDKit          3D

 33 35  0  0  0  0  0  0  0  0999 V2000
  -17.4100  -26.2990   56.8300 O   0  0  0  0  0  0  0  0  0  0  0  0
  -17.7310  -27.2560   55.7200 C   0  0  0  0  0  0  0  0  0  0  0  0
  -16.8150  -27.6430   54.5970 N   0  0  0  0  0  0  0  0  0  0  0  0
  -17.5410  -28.6200   53.7220 C   0  0  0  0  0  0  0  0  0  0  0  0
  -16.9980  -29.2670   52.4820 O   0  0  0  0  0  0  0  0  0  0  0  0
  -18.9060  -28.8390   54.3040 C   0  0  0  0  0  0  0  0  0  0  0  0
  -19.0240  -27.9960   55.5390 C   0  0  0  0  0  0  0  0  0  0  0  0
  -15.8980  -27.3120   54.4590 H   0  0  0  0  0  0  0  0  0  0  0  0
  -19.9680  -29.7410   53.7490 C   0  0  0  0  0  0  0  0  0  0  0  0
  -21.0910  -29.1670   52.9370 C   0  0  0  0  0  0  0  0  0  0  0  0
  -22.1520  -30.0700   52.3820 C   0  0  0  0  0  0  0  0  0  0  0  0
  -22.0910  -31.5470   52.6380 C   0  0  0  0  0  0  0  0  0  0  0  0
  -20.9680  -32.1210   53.4500 C   0  0  0  0  0  0  0  0  0  0  0  0
  -19.9060  -31.2180   54.0050 C   0  0  0  0  0  0  0  0  0  0  0  0
  -18.7830  -31.7920   54.8170 Cl  0  0  0  0  0  0  0  0  0  0  0  0
  -21.1330  -28.1510   52.7610 H   0  0  0  0  0  0  0  0  0  0  0  0
  -22.9250  -29.6750   51.8230 H   0  0  0  0  0  0  0  0  0  0  0  0
  -22.8210  -32.1680   52.2560 H   0  0  0  0  0  0  0  0  0  0  0  0
  -20.9250  -33.1360   53.6260 H   0  0  0  0  0  0  0  0  0  0  0  0
  -20.2230  -27.9070   56.4360 N   0  0  0  0  0  0  0  0  0  0  0  0
  -20.2980  -28.5000   57.2180 H   0  0  0  0  0  0  0  0  0  0  0  0
  -21.3090  -26.9150   56.1410 C   0  0  0  0  0  0  0  0  0  0  0  0
  -22.6040  -27.3760   55.5420 C   0  0  0  0  0  0  0  0  0  0  0  0
  -23.6900  -26.3840   55.2470 C   0  0  0  0  0  0  0  0  0  0  0  0
  -23.4800  -24.9300   55.5520 C   0  0  0  0  0  0  0  0  0  0  0  0
  -22.1840  -24.4690   56.1510 C   0  0  0  0  0  0  0  0  0  0  0  0
  -21.0990  -25.4610   56.4460 C   0  0  0  0  0  0  0  0  0  0  0  0
  -22.7490  -28.3760   55.3320 H   0  0  0  0  0  0  0  0  0  0  0  0
  -24.5810  -26.7010   54.8350 H   0  0  0  0  0  0  0  0  0  0  0  0
  -24.2260  -24.2480   55.3500 H   0  0  0  0  0  0  0  0  0  0  0  0
  -20.2080  -25.1440   56.8580 H   0  0  0  0  0  0  0  0  0  0  0  0
  -21.9740  -23.0150   56.4560 O   0  0  0  0  0  0  0  0  0  0  0  0
  -22.6530  -22.3950   56.2720 H   0  0  0  0  0  0  0  0  0  0  0  0
  2  1  2  0
  3  2  1  0
  4  6  1  0
  4  3  1  0
  5  4  2  0
  6  7  2  0
  7  2  1  0
  7 20  1  0
  8  3  1  0
  9 14  1  0
  9  6  1  0
 10  9  2  0
 11 12  2  0
 11 10  1  0
 12 13  1  0
 13 19  1  0
 13 14  2  0
 14 15  1  0
 16 10  1  0
 17 11  1  0
 18 12  1  0
 20 21  1  0
 22 20  1  0
 22 27  1  0
 23 22  2  0
 24 23  1  0
 24 25  2  0
 25 26  1  0
 26 27  2  0
 26 32  1  0
 27 31  1  0
 28 23  1  0
 29 24  1  0
 30 25  1  0
 33 32  1  0
M  END
>  <minimizedAffinity>  (104) 
-7.51853514

$$$$

     RDKit          3D

 33 35  0  0  0  0  0  0  0  0999 V2000
  -19.8820  -28.1160   53.4450 N   0  0  0  0  0  0  0  0  0  0  0  0
  -18.8480  -29.1430   53.8030 C   0  0  0  0  0  0  0  0  0  0  0  0
  -18.2410  -30.1450   52.8670 N   0  0  0  0  0  0  0  0  0  0  0  0
  -17.2580  -30.9690   53.6450 C   0  0  0  0  0  0  0  0  0  0  0  0
  -17.2580  -30.4760   55.0610 C   0  0  0  0  0  0  0  0  0  0  0  0
  -18.2410  -29.3470   55.1590 O   0  0  0  0  0  0  0  0  0  0  0  0
  -20.2210  -28.0600   52.5230 H   0  0  0  0  0  0  0  0  0  0  0  0
  -16.6830  -31.7400   53.2710 H   0  0  0  0  0  0  0  0  0  0  0  0
  -16.4220  -31.0160   56.1830 C   0  0  0  0  0  0  0  0  0  0  0  0
  -16.9440  -32.1310   57.0390 C   0  0  0  0  0  0  0  0  0  0  0  0
  -16.1080  -32.6720   58.1600 C   0  0  0  0  0  0  0  0  0  0  0  0
  -14.7490  -32.0970   58.4270 C   0  0  0  0  0  0  0  0  0  0  0  0
  -14.2260  -30.9810   57.5710 C   0  0  0  0  0  0  0  0  0  0  0  0
  -15.0620  -30.4410   56.4500 C   0  0  0  0  0  0  0  0  0  0  0  0
  -17.8800  -32.5270   56.8550 H   0  0  0  0  0  0  0  0  0  0  0  0
  -16.4690  -33.4400   58.7490 H   0  0  0  0  0  0  0  0  0  0  0  0
  -14.1740  -32.4690   59.1980 H   0  0  0  0  0  0  0  0  0  0  0  0
  -13.2910  -30.5860   57.7540 H   0  0  0  0  0  0  0  0  0  0  0  0
  -14.7020  -29.6730   55.8610 H   0  0  0  0  0  0  0  0  0  0  0  0
  -22.3920  -26.0960   55.7620 C   0  0  0  0  0  0  0  0  0  0  0  0
  -21.4320  -25.2940   56.5890 C   0  0  0  0  0  0  0  0  0  0  0  0
  -19.9550  -25.4320   56.3680 C   0  0  0  0  0  0  0  0  0  0  0  0
  -19.4380  -26.3730   55.3200 C   0  0  0  0  0  0  0  0  0  0  0  0
  -20.3990  -27.1750   54.4930 C   0  0  0  0  0  0  0  0  0  0  0  0
  -21.8760  -27.0370   54.7140 C   0  0  0  0  0  0  0  0  0  0  0  0
  -21.7870  -24.6470   57.3100 H   0  0  0  0  0  0  0  0  0  0  0  0
  -19.2940  -24.8800   56.9370 H   0  0  0  0  0  0  0  0  0  0  0  0
  -18.4220  -26.4680   55.1680 H   0  0  0  0  0  0  0  0  0  0  0  0
  -22.5370  -27.5890   54.1450 H   0  0  0  0  0  0  0  0  0  0  0  0
  -23.8700  -25.9580   55.9830 C   0  0  0  0  0  0  0  0  0  0  0  0
  -24.2380  -25.2870   56.7310 H   0  0  0  0  0  0  0  0  0  0  0  0
  -24.5550  -26.5310   55.3930 H   0  0  0  0  0  0  0  0  0  0  0  0
  -24.9230  -25.8590   56.1410 H   0  0  0  0  0  0  0  0  0  0  0  0
  1  2  1  0
  1 24  1  0
  2  6  1  0
  3  4  1  0
  3  2  2  0
  4  5  2  0
  5  6  1  0
  5  9  1  0
  7  1  1  0
  8  4  1  0
  9 14  2  0
  9 10  1  0
 10 11  2  0
 11 12  1  0
 11 16  1  0
 12 17  1  0
 13 18  1  0
 13 12  2  0
 14 13  1  0
 15 10  1  0
 19 14  1  0
 20 30  1  0
 20 21  1  0
 21 26  1  0
 22 21  2  0
 22 27  1  0
 23 22  1  0
 24 25  1  0
 24 23  2  0
 25 20  2  0
 28 23  1  0
 29 25  1  0
 30 33  1  0
 30 31  1  0
 32 30  1  0
M  END
>  <minimizedAffinity>  (105) 
-7.51187134

$$$$

     RDKit          3D

 69 68  0  0  1  0  0  0  0  0999 V2000
  -18.6160  -32.7370   54.3050 C   0  0  0  0  0  0  0  0  0  0  0  0
  -19.4610  -31.5890   54.7720 C   0  0  0  0  0  0  0  0  0  0  0  0
  -19.3270  -30.2460   54.1170 C   0  0  0  0  0  3  0  0  0  0  0  0
  -18.3500  -30.0500   52.9960 C   0  0  0  0  0  0  0  0  0  0  0  0
  -17.5050  -31.1990   52.5290 C   0  0  0  0  0  0  0  0  0  0  0  0
  -17.6390  -32.5420   53.1840 C   0  0  0  0  0  0  0  0  0  0  0  0
  -20.1330  -31.7230   55.5420 H   0  0  0  0  0  0  0  0  0  0  0  0
  -18.2590  -29.1260   52.5470 H   0  0  0  0  0  0  0  0  0  0  0  0
  -16.8330  -31.0640   51.7580 H   0  0  0  0  0  0  0  0  0  0  0  0
  -20.1720  -29.0970   54.5840 N   0  0  0  0  0  1  0  0  0  0  0  0
  -19.8930  -28.4510   55.9080 C   0  0  0  0  0  3  0  0  0  0  0  0
  -20.7380  -27.3030   56.3750 C   0  0  0  0  0  2  0  0  0  0  0  0
  -21.8610  -26.8000   55.5170 N   0  0  0  0  0  2  0  0  0  0  0  0
  -22.1400  -27.4470   54.1930 C   0  0  0  0  0  3  0  0  0  0  0  0
  -21.2950  -28.5950   53.7260 C   0  0  0  0  0  2  0  0  0  0  0  0
  -19.0920  -28.8090   56.5200 H   0  0  0  0  0  0  0  0  0  0  0  0
  -19.6950  -27.9900   56.8540 H   0  0  0  0  0  0  0  0  0  0  0  0
  -20.5390  -26.8410   57.3210 H   0  0  0  0  0  0  0  0  0  0  0  0
  -21.3400  -26.4830   56.7090 H   0  0  0  0  0  0  0  0  0  0  0  0
  -22.9410  -27.0880   53.5810 H   0  0  0  0  0  0  0  0  0  0  0  0
  -22.3390  -27.9070   53.2480 H   0  0  0  0  0  0  0  0  0  0  0  0
  -21.4950  -29.0550   52.7810 H   0  0  0  0  0  0  0  0  0  0  0  0
  -20.6930  -29.4140   53.3930 H   0  0  0  0  0  0  0  0  0  0  0  0
  -22.7060  -25.6520   55.9840 C   0  0  0  0  0  0  0  0  0  0  0  0
  -23.3080  -24.8320   56.3180 H   0  0  0  0  0  0  0  0  0  0  0  0
  -22.0620  -24.3470   56.3500 C   0  0  0  0  0  0  0  0  0  0  0  0
  -21.0000  -24.2350   56.2770 H   0  0  0  0  0  0  0  0  0  0  0  0
  -22.6640  -23.5280   56.6830 H   0  0  0  0  0  0  0  0  0  0  0  0
  -21.6030  -23.4170   56.6100 H   0  0  0  0  0  0  0  0  0  0  0  0
  -24.1940  -25.8080   56.0860 C   0  0  0  0  0  0  0  0  0  0  0  0
  -24.7970  -24.9890   56.4190 H   0  0  0  0  0  0  0  0  0  0  0  0
  -24.6530  -26.7390   55.8250 H   0  0  0  0  0  0  0  0  0  0  0  0
  -25.2560  -25.9200   56.1580 H   0  0  0  0  0  0  0  0  0  0  0  0
  -16.7940  -33.6910   52.7170 N   0  0  0  0  0  0  0  0  0  0  0  0
  -15.3250  -33.7140   53.0220 C   0  0  0  0  0  0  0  0  0  0  0  0
  -14.7010  -32.5900   53.7930 N   0  0  0  0  0  0  0  0  0  0  0  0
  -13.2330  -32.6120   54.0980 C   0  0  0  0  0  3  0  0  0  0  0  0
  -12.3890  -33.7610   53.6310 C   0  0  0  0  0  0  0  0  0  0  0  0
  -10.9250  -34.0570   53.7810 C   0  0  0  0  0  0  0  0  0  0  0  0
  -10.6450  -35.3650   53.1010 C   0  0  0  0  0  0  0  0  0  0  0  0
  -11.9350  -35.8770   52.5330 N   0  0  0  0  0  0  0  0  0  0  0  0
  -13.0120  -34.8860   52.8600 C   0  0  0  0  0  0  0  0  0  0  0  0
  -14.4810  -34.8620   52.5550 N   0  0  0  0  0  2  0  0  0  0  0  0
  -17.2030  -34.4290   52.2110 H   0  0  0  0  0  0  0  0  0  0  0  0
  -10.2330  -33.4640   54.2650 H   0  0  0  0  0  0  0  0  0  0  0  0
   -9.7260  -35.8300   53.0370 H   0  0  0  0  0  0  0  0  0  0  0  0
  -12.0530  -36.7170   52.0320 H   0  0  0  0  0  0  0  0  0  0  0  0
  -12.6080  -31.4870   54.8690 N   0  0  0  0  0  0  0  0  0  0  0  0
  -12.2200  -30.7200   54.3920 H   0  0  0  0  0  0  0  0  0  0  0  0
  -12.5770  -31.5330   56.3690 C   0  0  0  0  0  0  0  0  0  0  0  0
  -11.3650  -32.0610   57.0770 C   0  0  0  0  0  0  0  0  0  0  0  0
  -11.3340  -32.1070   58.5760 C   0  0  0  0  0  0  0  0  0  0  0  0
  -12.5140  -31.6250   59.3660 C   0  0  0  0  0  0  0  0  0  0  0  0
  -12.4820  -31.6710   60.8650 F   0  0  0  0  0  0  0  0  0  0  0  0
  -13.7260  -31.0970   58.6570 C   0  0  0  0  0  0  0  0  0  0  0  0
  -13.7570  -31.0520   57.1580 C   0  0  0  0  0  0  0  0  0  0  0  0
  -10.5520  -32.3930   56.5330 H   0  0  0  0  0  0  0  0  0  0  0  0
  -10.5000  -32.4700   59.0640 H   0  0  0  0  0  0  0  0  0  0  0  0
  -14.5390  -30.7660   59.2010 H   0  0  0  0  0  0  0  0  0  0  0  0
  -14.9700  -30.5240   56.4490 C   0  0  0  0  0  0  0  0  0  0  0  0
  -16.2600  -31.2860   56.5030 N   0  0  0  0  0  0  0  0  0  0  0  0
  -14.8900  -29.2350   55.6860 O   0  0  0  0  0  0  0  0  0  0  0  0
  -17.0560  -30.9390   56.0370 H   0  0  0  0  0  0  0  0  0  0  0  0
  -16.3120  -32.1320   57.0030 H   0  0  0  0  0  0  0  0  0  0  0  0
  -18.7490  -34.0800   54.9580 O   0  0  0  0  0  0  0  0  0  0  0  0
  -19.9300  -34.9520   54.6470 C   0  0  0  0  0  0  0  0  0  0  0  0
  -20.6770  -34.6160   53.9590 H   0  0  0  0  0  0  0  0  0  0  0  0
  -20.0250  -35.9110   55.1130 H   0  0  0  0  0  0  0  0  0  0  0  0
  -20.7720  -35.5740   54.4250 H   0  0  0  0  0  0  0  0  0  0  0  0
  1  2  1  0
  1 65  1  0
  2  7  1  0
  3  2  2  0
  4  3  1  0
  5  4  2  0
  5  6  1  0
  6  1  2  0
  8  4  1  0
  9  5  1  0
 10 11  1  0
 11 16  1  0
 11 17  1  0
 12 19  1  0
 12 18  1  0
 13 24  1  0
 14 13  1  0
 20 14  1  0
 21 14  1  0
 22 15  1  0
 23 15  1  0
 24 30  1  0
 24 25  1  0
 24 26  1  0
 26 29  1  0
 26 28  1  0
 27 26  1  0
 30 33  1  0
 30 31  1  0
 32 30  1  0
 34 35  1  0
 34  6  1  0
 35 36  2  0
 36 37  1  0
 37 48  1  0
 38 39  1  0
 38 37  1  0
 39 45  1  0
 40 39  2  0
 41 42  1  0
 41 40  1  0
 42 38  2  0
 43 42  1  0
 43 35  1  0
 44 34  1  0
 46 40  1  0
 47 41  1  0
 48 50  1  0
 49 48  1  0
 50 51  2  0
 50 56  1  0
 51 52  1  0
 52 58  1  0
 52 53  2  0
 53 54  1  0
 55 59  1  0
 55 53  1  0
 56 55  2  0
 57 51  1  0
 60 61  1  0
 60 56  1  0
 61 64  1  0
 62 60  2  0
 63 61  1  0
 66 65  1  0
 66 68  1  0
 67 66  1  0
 69 66  1  0
M  END
>  <minimizedAffinity>  (106) 
-8.5479002

$$$$

     RDKit          3D

 51 54  0  0  0  0  0  0  0  0999 V2000
  -18.3760  -28.3240   54.6180 C   0  0  0  0  0  0  0  0  0  0  0  0
  -17.3340  -29.3710   54.8800 C   0  0  0  0  0  0  0  0  0  0  0  0
  -16.0840  -28.6780   55.3320 C   0  0  0  0  0  0  0  0  0  0  0  0
  -16.3520  -27.2030   55.3500 C   0  0  0  0  0  0  0  0  0  0  0  0
  -17.7690  -26.9840   54.9080 S   0  0  0  0  0  0  0  0  0  0  0  0
  -17.4580  -30.3900   54.7680 H   0  0  0  0  0  0  0  0  0  0  0  0
  -23.7290  -26.6360   54.9800 C   0  0  0  0  0  0  0  0  0  0  0  0
  -23.5460  -27.8050   54.0590 C   0  0  0  0  0  0  0  0  0  0  0  0
  -22.1790  -28.3850   53.8450 C   0  0  0  0  0  0  0  0  0  0  0  0
  -21.6940  -29.5280   53.0030 N   0  0  0  0  0  0  0  0  0  0  0  0
  -20.2100  -29.6440   53.1900 C   0  0  0  0  0  0  0  0  0  0  0  0
  -19.7790  -28.5730   54.1470 N   0  0  0  0  0  0  0  0  0  0  0  0
  -20.9960  -27.7950   54.5520 C   0  0  0  0  0  0  0  0  0  0  0  0
  -21.1790  -26.6250   55.4730 C   0  0  0  0  0  0  0  0  0  0  0  0
  -22.5450  -26.0460   55.6870 C   0  0  0  0  0  0  0  0  0  0  0  0
  -24.3610  -28.2110   53.5720 H   0  0  0  0  0  0  0  0  0  0  0  0
  -19.5950  -30.3390   52.7390 H   0  0  0  0  0  0  0  0  0  0  0  0
  -20.3640  -26.2190   55.9590 H   0  0  0  0  0  0  0  0  0  0  0  0
  -25.0960  -26.0560   55.1930 O   0  0  0  0  0  0  0  0  0  0  0  0
  -26.2240  -26.9390   55.6390 C   0  0  0  0  0  0  0  0  0  0  0  0
  -26.0530  -27.9820   55.8040 H   0  0  0  0  0  0  0  0  0  0  0  0
  -27.1990  -26.5250   55.7920 H   0  0  0  0  0  0  0  0  0  0  0  0
  -27.0290  -27.5690   55.9570 H   0  0  0  0  0  0  0  0  0  0  0  0
  -22.7290  -24.8750   56.6080 O   0  0  0  0  0  0  0  0  0  0  0  0
  -21.9020  -23.6390   56.4210 C   0  0  0  0  0  0  0  0  0  0  0  0
  -22.0320  -22.8030   57.0790 H   0  0  0  0  0  0  0  0  0  0  0  0
  -21.1810  -23.5900   55.6320 H   0  0  0  0  0  0  0  0  0  0  0  0
  -21.3110  -22.7550   56.2890 H   0  0  0  0  0  0  0  0  0  0  0  0
  -15.3750  -26.1340   55.7410 C   0  0  0  0  0  2  0  0  0  0  0  0
  -14.3980  -25.0650   56.1320 N   0  0  0  0  0  1  0  0  0  0  0  0
  -14.7910  -29.3440   55.7020 O   0  0  0  0  0  0  0  0  0  0  0  0
  -14.7950  -30.7470   56.2330 C   0  0  0  0  0  0  0  0  0  0  0  0
  -15.4350  -31.4830   55.7940 H   0  0  0  0  0  0  0  0  0  0  0  0
  -14.7980  -31.7480   56.6110 H   0  0  0  0  0  0  0  0  0  0  0  0
  -13.9020  -31.1180   57.3790 C   0  0  0  0  0  0  0  0  0  0  0  0
  -14.3670  -30.9120   58.7900 C   0  0  0  0  0  0  0  0  0  0  0  0
  -13.4720  -31.2830   59.9360 C   0  0  0  0  0  0  0  0  0  0  0  0
  -12.1140  -31.8600   59.6710 C   0  0  0  0  0  0  0  0  0  0  0  0
  -11.6490  -32.0670   58.2600 C   0  0  0  0  0  0  0  0  0  0  0  0
  -12.5430  -31.6950   57.1140 C   0  0  0  0  0  0  0  0  0  0  0  0
  -15.3010  -30.5140   58.9720 H   0  0  0  0  0  0  0  0  0  0  0  0
  -13.7930  -31.1410   60.9070 H   0  0  0  0  0  0  0  0  0  0  0  0
  -11.4990  -32.1160   60.4600 H   0  0  0  0  0  0  0  0  0  0  0  0
  -10.7140  -32.4640   58.0770 H   0  0  0  0  0  0  0  0  0  0  0  0
  -12.0780  -31.9020   55.7030 S   0  0  1  0  0  0  0  0  0  0  0  0
  -11.4800  -30.5260   55.6990 O   0  0  0  0  0  0  0  0  0  0  0  0
  -12.6760  -33.2770   55.7070 O   0  0  0  0  0  0  0  0  0  0  0  0
  -11.6130  -32.1080   54.2910 C   0  0  0  0  0  0  0  0  0  0  0  0
  -11.8170  -33.0310   53.7910 H   0  0  0  0  0  0  0  0  0  0  0  0
  -11.0780  -31.3320   53.7860 H   0  0  0  0  0  0  0  0  0  0  0  0
  -11.2820  -32.2560   53.2850 H   0  0  0  0  0  0  0  0  0  0  0  0
  1  2  2  0
  1  5  1  0
  2  3  1  0
  3  4  2  0
  3 31  1  0
  4 29  1  0
  5  4  1  0
  6  2  1  0
  7 19  1  0
  7 15  1  0
  8  7  2  0
  9  8  1  0
  9 13  2  0
 10 11  2  0
 10  9  1  0
 11 12  1  0
 12 13  1  0
 12  1  1  0
 13 14  1  0
 14 15  2  0
 14 18  1  0
 15 24  1  0
 16  8  1  0
 17 11  1  0
 19 20  1  0
 20 22  1  0
 20 21  1  0
 20 23  1  0
 25 24  1  0
 25 26  1  0
 27 25  1  0
 28 25  1  0
 29 30  1  0
 31 32  1  0
 32 34  1  0
 32 35  1  0
 33 32  1  0
 35 36  1  0
 36 41  1  0
 36 37  2  0
 37 42  1  0
 38 37  1  0
 38 43  1  0
 39 38  2  0
 40 35  2  0
 40 39  1  0
 44 39  1  0
 45 47  2  0
 45 40  1  0
 46 45  2  0
 48 45  1  0
 49 48  1  0
 50 48  1  0
 51 48  1  0
M  END
>  <minimizedAffinity>  (107) 
-9.22719097

$$$$

     RDKit          3D

 63 64  0  0  1  0  0  0  0  0999 V2000
  -23.5130  -27.9610   55.0190 C   0  0  0  0  0  0  0  0  0  0  0  0
  -22.1160  -28.1990   54.5270 C   0  0  0  0  0  0  0  0  0  0  0  0
  -21.2490  -27.0860   55.0370 C   0  0  0  0  0  0  0  0  0  0  0  0
  -19.7870  -26.7960   54.8700 C   0  0  0  0  0  3  0  0  0  0  0  0
  -19.1860  -25.5800   55.5110 N   0  0  0  0  0  0  0  0  0  0  0  0
  -20.0470  -24.6540   56.3170 C   0  0  0  0  0  0  0  0  0  0  0  0
  -21.5100  -24.9440   56.4840 N   0  0  0  0  0  2  0  0  0  0  0  0
  -22.1110  -26.1600   55.8430 C   0  0  0  0  0  0  0  0  0  0  0  0
  -23.5090  -26.7010   55.8320 S   0  0  0  0  0  0  0  0  0  0  0  0
  -21.8060  -28.9900   53.9410 H   0  0  0  0  0  0  0  0  0  0  0  0
  -19.6340  -23.8170   56.7580 H   0  0  0  0  0  0  0  0  0  0  0  0
  -26.6560  -30.2380   55.0610 C   0  0  0  0  0  3  0  0  0  0  0  0
  -25.5970  -29.4530   55.7770 C   0  0  0  0  0  0  0  0  0  0  0  0
  -24.7040  -28.8310   54.7450 C   0  0  0  0  0  0  0  0  0  0  0  0
  -25.2110  -29.2310   53.3920 C   0  0  0  0  0  0  0  0  0  0  0  0
  -26.4170  -30.1000   53.5870 S   0  0  0  0  0  0  0  0  0  0  0  0
  -25.5000  -29.3580   56.8000 H   0  0  0  0  0  0  0  0  0  0  0  0
  -24.8020  -28.9560   52.4850 H   0  0  0  0  0  0  0  0  0  0  0  0
  -27.7600  -31.0220   55.7070 C   0  0  0  0  0  3  0  0  0  0  0  0
  -27.7420  -32.0910   55.6810 H   0  0  0  0  0  0  0  0  0  0  0  0
  -26.9550  -31.5320   55.2210 H   0  0  0  0  0  0  0  0  0  0  0  0
  -28.8880  -30.3060   56.3890 N   0  0  0  0  0  2  0  0  0  0  0  0
  -29.0690  -30.4640   57.3800 H   0  0  0  0  0  0  0  0  0  0  0  0
  -29.7510  -29.3560   55.6110 C   0  0  0  0  0  2  0  0  0  0  0  0
  -30.3090  -29.7080   54.7700 H   0  0  0  0  0  0  0  0  0  0  0  0
  -29.6940  -30.3850   55.3240 H   0  0  0  0  0  0  0  0  0  0  0  0
  -29.8310  -27.9140   56.0150 C   0  0  0  0  0  3  0  0  0  0  0  0
  -30.7450  -27.5180   56.4080 H   0  0  0  0  0  0  0  0  0  0  0  0
  -30.6880  -28.5470   56.1200 H   0  0  0  0  0  0  0  0  0  0  0  0
  -28.6310  -27.0260   55.8680 S   0  0  1  0  0  0  0  0  0  0  0  0
  -28.8520  -26.9730   54.3860 O   0  0  0  0  0  0  0  0  0  0  0  0
  -28.4100  -27.0790   57.3500 O   0  0  0  0  0  0  0  0  0  0  0  0
  -27.4310  -26.1390   55.7210 C   0  0  0  0  0  0  0  0  0  0  0  0
  -26.8670  -25.8550   56.5850 H   0  0  0  0  0  0  0  0  0  0  0  0
  -27.1400  -25.7890   54.7530 H   0  0  0  0  0  0  0  0  0  0  0  0
  -26.5750  -25.5050   55.6160 H   0  0  0  0  0  0  0  0  0  0  0  0
  -18.9260  -27.7220   54.0640 N   0  0  0  0  0  0  0  0  0  0  0  0
  -18.8040  -27.5660   53.0990 H   0  0  0  0  0  0  0  0  0  0  0  0
  -18.2490  -28.8840   54.7270 C   0  0  0  0  0  0  0  0  0  0  0  0
  -19.0390  -30.1080   55.0850 C   0  0  0  0  0  0  0  0  0  0  0  0
  -18.3620  -31.2710   55.7480 C   0  0  0  0  0  0  0  0  0  0  0  0
  -16.8950  -31.2100   56.0530 C   0  0  0  0  0  0  0  0  0  0  0  0
  -16.1040  -29.9870   55.6940 C   0  0  0  0  0  0  0  0  0  0  0  0
  -14.6370  -29.9260   55.9990 Cl  0  0  0  0  0  0  0  0  0  0  0  0
  -16.7810  -28.8240   55.0310 C   0  0  0  0  0  0  0  0  0  0  0  0
  -20.0490  -30.1500   54.8750 H   0  0  0  0  0  0  0  0  0  0  0  0
  -18.9060  -32.1130   55.9940 H   0  0  0  0  0  0  0  0  0  0  0  0
  -16.2370  -27.9820   54.7850 H   0  0  0  0  0  0  0  0  0  0  0  0
  -16.2180  -32.3730   56.7160 O   0  0  0  0  0  0  0  0  0  0  0  0
  -15.8750  -32.3090   58.1740 C   0  0  0  0  0  0  0  0  0  0  0  0
  -16.6550  -32.2970   58.9070 H   0  0  0  0  0  0  0  0  0  0  0  0
  -15.6310  -32.2640   59.2160 H   0  0  0  0  0  0  0  0  0  0  0  0
  -14.4400  -32.2620   58.6060 C   0  0  0  0  0  0  0  0  0  0  0  0
  -13.4650  -33.2740   58.0810 C   0  0  0  0  0  0  0  0  0  0  0  0
  -12.0290  -33.2270   58.5120 C   0  0  0  0  0  0  0  0  0  0  0  0
  -11.5680  -32.1680   59.4700 C   0  0  0  0  0  0  0  0  0  0  0  0
  -12.5430  -31.1560   59.9960 C   0  0  0  0  0  0  0  0  0  0  0  0
  -12.0820  -30.0980   60.9530 F   0  0  0  0  0  0  0  0  0  0  0  0
  -13.9790  -31.2040   59.5640 C   0  0  0  0  0  0  0  0  0  0  0  0
  -13.7820  -34.0020   57.4220 H   0  0  0  0  0  0  0  0  0  0  0  0
  -11.3580  -33.9230   58.1510 H   0  0  0  0  0  0  0  0  0  0  0  0
  -10.5800  -32.1360   59.7670 H   0  0  0  0  0  0  0  0  0  0  0  0
  -14.6490  -30.5070   59.9260 H   0  0  0  0  0  0  0  0  0  0  0  0
  1  9  1  0
  2  1  2  0
  2  3  1  0
  3  8  2  0
  4 37  1  0
  4  3  1  0
  4  5  1  0
  5  6  2  0
  6  7  1  0
  6 11  1  0
  8  7  1  0
  9  8  1  0
 10  2  1  0
 12 13  2  0
 13 17  1  0
 14  1  1  0
 14 13  1  0
 15 16  1  0
 15 14  2  0
 16 12  1  0
 18 15  1  0
 19 22  1  0
 20 19  1  0
 21 19  1  0
 22 23  1  0
 25 24  1  0
 26 24  1  0
 27 29  1  0
 27 28  1  0
 30 27  1  0
 30 32  2  0
 31 30  2  0
 33 30  1  0
 33 34  1  0
 35 33  1  0
 36 33  1  0
 37 39  1  0
 38 37  1  0
 39 45  2  0
 39 40  1  0
 40 41  2  0
 41 47  1  0
 41 42  1  0
 42 49  1  0
 43 44  1  0
 43 42  2  0
 45 43  1  0
 46 40  1  0
 48 45  1  0
 49 50  1  0
 50 53  1  0
 50 51  1  0
 50 52  1  0
 53 59  1  0
 54 55  1  0
 54 53  2  0
 55 56  2  0
 56 62  1  0
 56 57  1  0
 57 58  1  0
 59 63  1  0
 59 57  2  0
 60 54  1  0
 61 55  1  0
M  END
>  <minimizedAffinity>  (108) 
-11.1467571

$$$$

     RDKit          3D

 44 43  0  0  0  0  0  0  0  0999 V2000
  -23.0830  -31.9140   52.3900 C   0  0  0  0  0  0  0  0  0  0  0  0
  -23.9680  -31.0160   53.2010 C   0  0  0  0  0  1  0  0  0  0  0  0
  -25.3390  -31.4750   53.6000 C   0  0  0  0  0  3  0  0  0  0  0  0
  -25.8240  -32.8340   53.1880 C   0  0  0  0  0  3  0  0  0  0  0  0
  -24.9380  -33.7320   52.3770 C   0  0  0  0  0  1  0  0  0  0  0  0
  -25.4240  -35.0910   51.9640 O   0  0  0  0  0 15  0  0  0  0  0  0
  -23.5680  -33.2720   51.9780 N   0  0  0  0  0  4  0  0  0  0  0  0
  -24.9930  -30.5070   53.8950 H   0  0  0  0  0  0  0  0  0  0  0  0
  -26.8030  -33.1620   53.4730 H   0  0  0  0  0  0  0  0  0  0  0  0
  -26.1700  -33.8030   52.8940 H   0  0  0  0  0  0  0  0  0  0  0  0
  -22.9870  -33.8620   51.4450 H   0  0  0  0  0  0  0  0  0  0  0  0
  -26.2250  -30.5770   54.4120 C   0  0  0  0  0  0  0  0  0  0  0  0
  -26.1480  -30.6010   55.9100 C   0  0  0  0  0  0  0  0  0  0  0  0
  -27.0340  -29.7030   56.7210 C   0  0  0  0  0  0  0  0  0  0  0  0
  -27.9970  -28.7800   56.0350 C   0  0  0  0  0  0  0  0  0  0  0  0
  -28.8830  -27.8820   56.8460 Cl  0  0  0  0  0  0  0  0  0  0  0  0
  -28.0740  -28.7570   54.5360 C   0  0  0  0  0  0  0  0  0  0  0  0
  -29.0380  -27.8340   53.8500 Cl  0  0  0  0  0  0  0  0  0  0  0  0
  -27.1880  -29.6550   53.7250 C   0  0  0  0  0  0  0  0  0  0  0  0
  -25.4850  -31.2360   56.3820 H   0  0  0  0  0  0  0  0  0  0  0  0
  -26.9810  -29.7200   57.7510 H   0  0  0  0  0  0  0  0  0  0  0  0
  -27.2410  -29.6380   52.6950 H   0  0  0  0  0  0  0  0  0  0  0  0
  -21.7120  -31.4540   51.9910 C   0  0  0  0  0  0  0  0  0  0  0  0
  -21.3660  -30.4850   52.2850 H   0  0  0  0  0  0  0  0  0  0  0  0
  -21.0800  -32.0950   51.4120 H   0  0  0  0  0  0  0  0  0  0  0  0
  -20.7340  -31.1260   51.7060 H   0  0  0  0  0  0  0  0  0  0  0  0
  -23.4830  -29.6580   53.6140 C   0  0  0  0  0  2  0  0  0  0  0  0
  -23.7450  -28.4690   52.7370 O   0  0  0  0  0  1  0  0  0  0  0  0
  -22.7360  -29.4880   54.9030 N   0  0  0  0  0  0  0  0  0  0  0  0
  -22.5640  -30.2670   55.4790 H   0  0  0  0  0  0  0  0  0  0  0  0
  -22.2510  -28.1290   55.3160 C   0  0  0  0  0  0  0  0  0  0  0  0
  -20.7900  -27.8960   55.5560 C   0  0  0  0  0  0  0  0  0  0  0  0
  -20.3040  -26.5380   55.9690 C   0  0  0  0  0  0  0  0  0  0  0  0
  -21.2810  -25.4140   56.1400 C   0  0  0  0  0  0  0  0  0  0  0  0
  -21.0990  -23.9770   56.5350 N   0  0  0  0  0  0  0  0  0  0  0  0
  -22.4500  -23.3230   56.5390 N   0  0  0  0  0  0  0  0  0  0  0  0
  -23.4650  -24.3540   56.1460 C   0  0  0  0  0  0  0  0  0  0  0  0
  -22.7430  -25.6460   55.9000 C   0  0  0  0  0  0  0  0  0  0  0  0
  -23.2280  -27.0040   55.4870 C   0  0  0  0  0  0  0  0  0  0  0  0
  -20.1170  -28.6710   55.4380 H   0  0  0  0  0  0  0  0  0  0  0  0
  -19.2980  -26.3780   56.1340 H   0  0  0  0  0  0  0  0  0  0  0  0
  -20.2450  -23.5410   56.7540 H   0  0  0  0  0  0  0  0  0  0  0  0
  -24.4820  -24.2020   56.0600 H   0  0  0  0  0  0  0  0  0  0  0  0
  -24.2340  -27.1640   55.3220 H   0  0  0  0  0  0  0  0  0  0  0  0
  1  2  1  0
  3  8  1  0
  3 12  1  0
  4  9  1  0
  4  3  1  0
  7  5  1  0
  7  1  2  0
 10  4  1  0
 11  7  1  0
 12 13  1  0
 13 20  1  0
 13 14  2  0
 14 21  1  0
 15 14  1  0
 15 16  1  0
 17 15  2  0
 18 17  1  0
 19 12  2  0
 19 17  1  0
 22 19  1  0
 23 24  1  0
 23  1  1  0
 25 23  1  0
 26 23  1  0
 27 29  1  0
 28 27  1  0
 29 31  1  0
 29 30  1  0
 31 39  2  0
 31 32  1  0
 32 33  2  0
 33 41  1  0
 33 34  1  0
 34 35  1  0
 35 36  1  0
 35 42  1  0
 37 36  2  0
 38 34  2  0
 38 37  1  0
 39 38  1  0
 40 32  1  0
 43 37  1  0
 44 39  1  0
M  END
>  <minimizedAffinity>  (109) 
-8.53028393

$$$$

     RDKit          3D

 64 60  0  0  0  0  0  0  0  0999 V2000
  -21.9800  -25.1370   56.1400 C   0  0  0  0  0  0  0  0  0  0  0  0
  -20.5290  -24.7940   56.3090 C   0  0  0  0  0  0  0  0  0  0  0  0
  -19.4910  -25.8750   56.2490 C   0  0  0  0  0  0  0  0  0  0  0  0
  -19.9030  -27.2990   56.0200 C   0  0  0  0  0  0  0  0  0  0  0  0
  -21.3540  -27.6420   55.8510 C   0  0  0  0  0  0  0  0  0  0  0  0
  -22.3920  -26.5610   55.9110 C   0  0  0  0  0  0  0  0  0  0  0  0
  -20.2450  -23.8140   56.4660 H   0  0  0  0  0  0  0  0  0  0  0  0
  -18.4930  -25.6390   56.3650 H   0  0  0  0  0  0  0  0  0  0  0  0
  -21.6370  -28.6220   55.6940 H   0  0  0  0  0  0  0  0  0  0  0  0
  -23.8420  -26.9040   55.7420 C   0  0  0  0  0  0  0  0  0  0  0  0
  -24.8980  -25.9160   56.1420 C   0  0  0  0  0  0  0  0  0  0  0  0
  -26.3480  -26.2590   55.9730 C   0  0  0  0  0  0  0  0  0  0  0  0
  -26.7430  -27.5900   55.4040 C   0  0  0  0  0  0  0  0  0  0  0  0
  -25.6870  -28.5770   55.0040 C   0  0  0  0  0  0  0  0  0  0  0  0
  -24.2370  -28.2340   55.1730 C   0  0  0  0  0  0  0  0  0  0  0  0
  -24.6260  -25.0010   56.5340 H   0  0  0  0  0  0  0  0  0  0  0  0
  -27.0750  -25.5800   56.2480 H   0  0  0  0  0  0  0  0  0  0  0  0
  -25.9590  -29.4930   54.6120 H   0  0  0  0  0  0  0  0  0  0  0  0
  -23.5100  -28.9140   54.8970 H   0  0  0  0  0  0  0  0  0  0  0  0
  -28.1930  -27.9330   55.2350 C   0  0  0  0  0  0  0  0  0  0  0  0
  -28.6400  -29.3620   55.3150 O   0  0  0  0  0  0  0  0  0  0  0  0
  -29.1970  -26.8460   54.9860 N   0  0  0  0  0  4  0  0  0  0  0  0
  -28.9040  -25.9080   54.9330 H   0  0  0  0  0  0  0  0  0  0  0  0
  -30.6470  -27.1890   54.8170 C   0  0  0  0  0  0  0  0  0  0  0  0
  -31.2090  -27.5640   55.6470 H   0  0  0  0  0  0  0  0  0  0  0  0
  -31.6820  -27.4340   54.6960 H   0  0  0  0  0  0  0  0  0  0  0  0
  -31.3110  -27.0070   53.4840 C   0  0  0  0  0 15  0  0  0  0  0  0
  -32.0660  -26.1460   52.5160 C   0  0  0  0  0  3  0  0  0  0  0  0
  -31.7040  -27.5530   52.1430 C   0  0  0  0  0  2  0  0  0  0  0  0
  -31.7840  -26.8770   52.5330 H   0  0  0  0  0  0  0  0  0  0  0  0
  -32.5260  -25.2110   52.2700 H   0  0  0  0  0  0  0  0  0  0  0  0
  -32.4560  -26.2800   51.5280 H   0  0  0  0  0  0  0  0  0  0  0  0
  -31.7180  -28.3570   51.4380 H   0  0  0  0  0  0  0  0  0  0  0  0
  -31.1870  -28.3540   52.6290 H   0  0  0  0  0  0  0  0  0  0  0  0
  -23.0180  -24.0560   56.2000 C   0  0  0  0  0  0  0  0  0  0  0  0
  -22.7230  -23.0400   56.3630 H   0  0  0  0  0  0  0  0  0  0  0  0
  -24.0530  -24.3010   56.0790 H   0  0  0  0  0  0  0  0  0  0  0  0
  -23.7580  -23.2850   56.2420 H   0  0  0  0  0  0  0  0  0  0  0  0
  -18.8650  -28.3800   55.9600 N   0  0  0  0  0  0  0  0  0  0  0  0
  -18.4520  -28.9510   54.6360 C   0  0  0  0  0  0  0  0  0  0  0  0
  -19.0780  -28.4420   53.3720 O   0  0  0  0  0  0  0  0  0  0  0  0
  -18.4540  -28.7140   56.7910 H   0  0  0  0  0  0  0  0  0  0  0  0
  -17.4140  -30.0320   54.5760 C   0  0  0  0  0  0  0  0  0  0  0  0
  -17.3570  -30.9530   53.3930 C   0  0  0  0  0  0  0  0  0  0  0  0
  -16.3190  -32.0340   53.3340 C   0  0  0  0  0  0  0  0  0  0  0  0
  -15.3380  -32.1940   54.4570 N   0  0  0  0  0  0  0  0  0  0  0  0
  -15.3950  -31.2740   55.6400 C   0  0  0  0  0  0  0  0  0  0  0  0
  -16.4330  -30.1930   55.7000 C   0  0  0  0  0  0  0  0  0  0  0  0
  -18.0320  -30.8420   52.6200 H   0  0  0  0  0  0  0  0  0  0  0  0
  -16.2800  -32.6670   52.5190 H   0  0  0  0  0  0  0  0  0  0  0  0
  -16.4730  -29.5600   56.5140 H   0  0  0  0  0  0  0  0  0  0  0  0
  -14.4140  -31.4350   56.7630 N   0  0  0  0  0  0  0  0  0  0  0  0
  -12.9220  -31.4920   56.6280 C   0  0  0  0  0  0  0  0  0  0  0  0
  -12.3380  -31.6590   58.0010 C   0  0  0  0  0  2  0  0  0  0  0  0
  -13.4710  -31.7050   58.9830 C   0  0  0  0  0  2  0  0  0  0  0  0
  -14.7530  -31.5660   58.2190 C   0  0  0  0  0  2  0  0  0  0  0  0
  -12.3690  -31.4260   55.7140 H   0  0  0  0  0  0  0  0  0  0  0  0
  -11.8550  -31.5500   56.7000 H   0  0  0  0  0  0  0  0  0  0  0  0
  -11.2970  -31.7330   58.2370 H   0  0  0  0  0  0  0  0  0  0  0  0
  -12.0810  -31.7760   59.0330 H   0  0  0  0  0  0  0  0  0  0  0  0
  -13.3790  -31.8170   60.0430 H   0  0  0  0  0  0  0  0  0  0  0  0
  -14.3780  -31.7190   59.5500 H   0  0  0  0  0  0  0  0  0  0  0  0
  -15.7380  -31.5620   58.6380 H   0  0  0  0  0  0  0  0  0  0  0  0
  -15.5710  -31.4580   57.5360 H   0  0  0  0  0  0  0  0  0  0  0  0
  1 35  1  0
  1  2  1  0
  2  7  1  0
  3  2  2  0
  3  8  1  0
  4  3  1  0
  5  6  1  0
  5  4  2  0
  6  1  2  0
  9  5  1  0
 10  6  1  0
 10 11  1  0
 11 16  1  0
 12 11  2  0
 12 17  1  0
 13 12  1  0
 14 15  1  0
 14 13  2  0
 15 10  2  0
 18 14  1  0
 19 15  1  0
 20 21  2  0
 20 13  1  0
 22 20  1  0
 23 22  1  0
 24 22  2  0
 24 25  1  0
 26 24  1  0
 28 30  1  0
 29 34  1  0
 31 28  1  0
 32 28  1  0
 33 29  1  0
 35 38  1  0
 35 36  1  0
 37 35  1  0
 39  4  1  0
 39 42  1  0
 40 39  1  0
 41 40  2  0
 43 40  1  0
 43 48  2  0
 44 43  1  0
 45 44  2  0
 45 46  1  0
 46 47  2  0
 47 48  1  0
 47 52  1  0
 48 51  1  0
 49 44  1  0
 50 45  1  0
 53 58  1  0
 53 52  2  0
 54 59  1  0
 54 60  1  0
 55 62  1  0
 55 61  1  0
 56 63  1  0
 57 53  1  0
 64 56  1  0
M  END
>  <minimizedAffinity>  (110) 
-10.389163

$$$$

     RDKit          3D

 40 32  0  0  0  0  0  0  0  0999 V2000
  -18.7850  -29.5270   55.8060 N   0  0  0  0  0  0  0  0  0  0  0  0
  -17.8960  -29.7350   54.6160 C   0  0  0  0  0  0  0  0  0  0  0  0
  -17.8650  -28.7150   53.5160 O   0  0  0  0  0  0  0  0  0  0  0  0
  -18.8050  -30.1970   56.5280 H   0  0  0  0  0  0  0  0  0  0  0  0
  -19.1570  -26.9030   56.1520 C   0  0  0  0  0  0  0  0  0  0  0  0
  -19.6420  -28.2990   55.8970 C   0  0  0  0  0  0  0  0  0  0  0  0
  -21.1340  -28.2540   55.7490 S   0  0  0  0  0  0  0  0  0  0  0  0
  -21.5720  -26.8280   55.9130 C   0  0  0  0  0 15  0  0  0  0  0  0
  -20.3500  -25.9930   56.1620 C   0  0  0  0  0  3  0  0  0  0  0  0
  -20.4820  -24.5130   56.3650 C   0  0  0  0  0  3  0  0  0  0  0  0
  -21.8350  -23.8670   56.3190 C   0  0  0  0  0  2  0  0  0  0  0  0
  -23.0560  -24.7020   56.0700 C   0  0  0  0  0  2  0  0  0  0  0  0
  -22.9250  -26.1820   55.8670 C   0  0  0  0  0  2  0  0  0  0  0  0
  -19.6110  -23.9180   56.5430 H   0  0  0  0  0  0  0  0  0  0  0  0
  -20.5760  -23.4570   56.5100 H   0  0  0  0  0  0  0  0  0  0  0  0
  -21.9290  -22.8110   56.4640 H   0  0  0  0  0  0  0  0  0  0  0  0
  -22.8000  -23.4060   56.2870 H   0  0  0  0  0  0  0  0  0  0  0  0
  -24.0220  -24.2410   56.0370 H   0  0  0  0  0  0  0  0  0  0  0  0
  -23.9280  -25.2970   55.8920 H   0  0  0  0  0  0  0  0  0  0  0  0
  -23.7960  -26.7770   55.6890 H   0  0  0  0  0  0  0  0  0  0  0  0
  -22.8300  -27.2380   55.7220 H   0  0  0  0  0  0  0  0  0  0  0  0
  -16.3040  -26.0750   56.5700 N   0  0  0  0  0  1  0  0  0  0  0  0
  -17.7310  -26.4890   56.3610 C   0  0  0  0  0  2  0  0  0  0  0  0
  -17.0390  -30.9620   54.5250 C   0  0  0  0  0  0  0  0  0  0  0  0
  -16.9750  -31.5030   53.6030 H   0  0  0  0  0  0  0  0  0  0  0  0
  -16.4280  -31.8380   54.4600 H   0  0  0  0  0  0  0  0  0  0  0  0
  -16.2720  -31.4320   55.7250 N   0  0  0  0  0  2  0  0  0  0  0  0
  -14.9590  -30.7960   56.0720 C   0  0  0  0  0  3  0  0  0  0  0  0
  -14.1920  -31.2660   57.2730 C   0  0  0  0  0  2  0  0  0  0  0  0
  -14.7390  -32.3720   58.1260 O   0  0  0  0  0  1  0  0  0  0  0  0
  -16.0520  -33.0080   57.7790 C   0  0  0  0  0  3  0  0  0  0  0  0
  -16.8190  -32.5380   56.5790 C   0  0  0  0  0  2  0  0  0  0  0  0
  -14.5690  -30.0080   55.4630 H   0  0  0  0  0  0  0  0  0  0  0  0
  -14.0210  -30.3430   56.3200 H   0  0  0  0  0  0  0  0  0  0  0  0
  -13.2550  -30.8130   57.5210 H   0  0  0  0  0  0  0  0  0  0  0  0
  -13.6450  -31.6020   58.1290 H   0  0  0  0  0  0  0  0  0  0  0  0
  -16.4420  -33.7960   58.3880 H   0  0  0  0  0  0  0  0  0  0  0  0
  -16.9900  -33.4610   57.5320 H   0  0  0  0  0  0  0  0  0  0  0  0
  -17.7560  -32.9910   56.3310 H   0  0  0  0  0  0  0  0  0  0  0  0
  -17.3660  -32.2030   55.7220 H   0  0  0  0  0  0  0  0  0  0  0  0
  1  6  1  0
  1  4  1  0
  2  1  1  0
  3  2  2  0
  5  9  2  0
  5 23  1  0
  6  5  1  0
  7  6  2  0
  9 10  1  0
 10 15  1  0
 10 14  1  0
 11 16  1  0
 17 11  1  0
 18 12  1  0
 19 12  1  0
 20 13  1  0
 21 13  1  0
 23 22  1  0
 24  2  1  0
 24 27  1  0
 25 24  1  0
 26 24  1  0
 27 28  1  0
 28 34  1  0
 29 35  1  0
 29 36  1  0
 31 30  1  0
 31 37  1  0
 33 28  1  0
 38 31  1  0
 39 32  1  0
 40 32  1  0
M  END
>  <minimizedAffinity>  (111) 
-7.82263088

$$$$

     RDKit          3D

 38 40  0  0  0  0  0  0  0  0999 V2000
  -18.2800  -27.7820   54.5770 N   0  0  0  0  0  0  0  0  0  0  0  0
  -17.6160  -28.9790   55.1900 C   0  0  0  0  0  0  0  0  0  0  0  0
  -18.4380  -30.0070   55.9080 N   0  0  0  0  0  0  0  0  0  0  0  0
  -17.7740  -31.2040   56.5220 C   0  0  0  0  0  0  0  0  0  0  0  0
  -16.2870  -31.3730   56.4170 C   0  0  0  0  0  0  0  0  0  0  0  0
  -15.4650  -30.3440   55.6990 C   0  0  0  0  0  0  0  0  0  0  0  0
  -13.9780  -30.5120   55.5940 N   0  0  0  0  0  0  0  0  0  0  0  0
  -16.1290  -29.1470   55.0860 N   0  0  0  0  0  0  0  0  0  0  0  0
  -17.7410  -27.1070   54.1060 H   0  0  0  0  0  0  0  0  0  0  0  0
  -18.3400  -31.9120   57.0160 H   0  0  0  0  0  0  0  0  0  0  0  0
  -15.8300  -32.1960   56.8380 H   0  0  0  0  0  0  0  0  0  0  0  0
  -13.4380  -29.8380   55.1230 H   0  0  0  0  0  0  0  0  0  0  0  0
  -13.3140  -31.7090   56.2070 C   0  0  0  0  0  0  0  0  0  0  0  0
  -13.1270  -32.9590   55.3990 C   0  0  0  0  0  0  0  0  0  0  0  0
  -12.4620  -34.1560   56.0120 C   0  0  0  0  0  0  0  0  0  0  0  0
  -11.9850  -34.1030   57.4330 C   0  0  0  0  0  0  0  0  0  0  0  0
  -12.1720  -32.8530   58.2410 C   0  0  0  0  0  0  0  0  0  0  0  0
  -11.6940  -32.8000   59.6620 F   0  0  0  0  0  0  0  0  0  0  0  0
  -12.8360  -31.6560   57.6280 C   0  0  0  0  0  0  0  0  0  0  0  0
  -13.4550  -32.9960   54.4220 H   0  0  0  0  0  0  0  0  0  0  0  0
  -12.3340  -35.0160   55.4560 H   0  0  0  0  0  0  0  0  0  0  0  0
  -11.5280  -34.9270   57.8550 H   0  0  0  0  0  0  0  0  0  0  0  0
  -12.9650  -30.7960   58.1840 H   0  0  0  0  0  0  0  0  0  0  0  0
  -22.1640  -28.2690   53.9260 C   0  0  0  0  0  0  0  0  0  0  0  0
  -22.7400  -27.2760   54.8920 C   0  0  0  0  0  0  0  0  0  0  0  0
  -21.8300  -26.4530   55.7540 C   0  0  0  0  0  0  0  0  0  0  0  0
  -20.3430  -26.6210   55.6490 C   0  0  0  0  0  0  0  0  0  0  0  0
  -19.7670  -27.6130   54.6820 C   0  0  0  0  0  0  0  0  0  0  0  0
  -20.6780  -28.4370   53.8210 C   0  0  0  0  0  0  0  0  0  0  0  0
  -23.7640  -27.1610   54.9650 H   0  0  0  0  0  0  0  0  0  0  0  0
  -22.2260  -25.7700   56.4190 H   0  0  0  0  0  0  0  0  0  0  0  0
  -19.7160  -26.0540   56.2410 H   0  0  0  0  0  0  0  0  0  0  0  0
  -20.2810  -29.1200   53.1560 H   0  0  0  0  0  0  0  0  0  0  0  0
  -22.5290  -30.2590   52.2960 N   0  0  0  0  0  0  0  0  0  0  0  0
  -23.0750  -29.0920   53.0640 C   0  0  0  0  0  0  0  0  0  0  0  0
  -24.5320  -28.7490   52.9710 O   0  0  0  0  0  0  0  0  0  0  0  0
  -21.5720  -30.4840   52.3570 H   0  0  0  0  0  0  0  0  0  0  0  0
  -23.1260  -30.7990   51.7310 H   0  0  0  0  0  0  0  0  0  0  0  0
  1 28  1  0
  1  2  1  0
  2  3  2  0
  3  4  1  0
  4 10  1  0
  5  4  2  0
  5 11  1  0
  6  5  1  0
  7  6  1  0
  7 13  1  0
  8  2  1  0
  8  6  2  0
  9  1  1  0
 12  7  1  0
 13 19  1  0
 14 15  1  0
 14 13  2  0
 15 16  2  0
 16 22  1  0
 16 17  1  0
 17 18  1  0
 19 23  1  0
 19 17  2  0
 20 14  1  0
 21 15  1  0
 24 25  1  0
 25 30  1  0
 25 26  2  0
 26 31  1  0
 27 26  1  0
 27 32  1  0
 28 27  2  0
 29 24  2  0
 29 28  1  0
 33 29  1  0
 34 37  1  0
 34 35  1  0
 35 24  1  0
 36 35  2  0
 38 34  1  0
M  END
>  <minimizedAffinity>  (112) 
-7.54414797

$$$$

     RDKit          3D

 56 58  0  0  0  0  0  0  0  0999 V2000
  -17.0200  -28.6830   55.1510 C   0  0  0  0  0  0  0  0  0  0  0  0
  -18.3800  -28.9780   55.7100 C   0  0  0  0  0  0  0  0  0  0  0  0
  -19.2930  -27.8520   56.0950 C   0  0  0  0  0  0  0  0  0  0  0  0
  -18.8470  -26.4310   55.9200 C   0  0  0  0  0  0  0  0  0  0  0  0
  -17.4860  -26.1360   55.3600 C   0  0  0  0  0  0  0  0  0  0  0  0
  -16.5730  -27.2620   54.9760 C   0  0  0  0  0  0  0  0  0  0  0  0
  -18.6870  -29.9560   55.8310 H   0  0  0  0  0  0  0  0  0  0  0  0
  -20.2290  -28.0550   56.4800 H   0  0  0  0  0  0  0  0  0  0  0  0
  -17.1790  -25.1580   55.2400 H   0  0  0  0  0  0  0  0  0  0  0  0
  -15.6370  -27.0590   54.5910 H   0  0  0  0  0  0  0  0  0  0  0  0
  -14.1330  -31.4000   55.3360 N   0  0  0  0  0  0  0  0  0  0  0  0
  -15.0460  -30.2740   55.7200 C   0  0  0  0  0  0  0  0  0  0  0  0
  -14.8980  -29.6120   57.0580 O   0  0  0  0  0  0  0  0  0  0  0  0
  -16.1070  -29.8090   54.7660 N   0  0  0  0  0  0  0  0  0  0  0  0
  -14.2290  -31.8340   54.4570 H   0  0  0  0  0  0  0  0  0  0  0  0
  -16.2030  -30.2440   53.8880 H   0  0  0  0  0  0  0  0  0  0  0  0
  -10.6870  -31.6250   57.2920 C   0  0  0  0  0  3  0  0  0  0  0  0
  -10.9500  -32.7920   58.1960 C   0  0  0  0  0  0  0  0  0  0  0  0
  -12.2740  -33.4960   58.1470 C   0  0  0  0  0  0  0  0  0  0  0  0
  -13.3350  -33.0310   57.1930 C   0  0  0  0  0  0  0  0  0  0  0  0
  -13.0720  -31.8640   56.2890 C   0  0  0  0  0  0  0  0  0  0  0  0
  -11.7480  -31.1600   56.3390 C   0  0  0  0  0  0  0  0  0  0  0  0
  -10.2200  -33.1120   58.8520 H   0  0  0  0  0  0  0  0  0  0  0  0
  -12.4550  -34.2990   58.7690 H   0  0  0  0  0  0  0  0  0  0  0  0
  -14.2460  -33.5160   57.1590 H   0  0  0  0  0  0  0  0  0  0  0  0
  -11.5670  -30.3570   55.7170 H   0  0  0  0  0  0  0  0  0  0  0  0
   -9.3630  -30.9210   57.3420 C   0  0  0  0  0  3  0  0  0  0  0  0
   -8.5620  -31.2430   56.7100 H   0  0  0  0  0  0  0  0  0  0  0  0
   -9.5070  -31.7450   56.6740 H   0  0  0  0  0  0  0  0  0  0  0  0
   -9.1620  -29.7660   58.2770 C   0  0  0  0  0  0  0  0  0  0  0  0
   -9.9630  -29.4430   58.9090 H   0  0  0  0  0  0  0  0  0  0  0  0
   -8.2180  -29.2640   58.3120 H   0  0  0  0  0  0  0  0  0  0  0  0
   -9.0190  -28.9410   58.9440 H   0  0  0  0  0  0  0  0  0  0  0  0
  -19.7600  -25.3050   56.3040 O   0  0  0  0  0  0  0  0  0  0  0  0
  -21.2460  -25.4710   56.1860 C   0  0  0  0  0  0  0  0  0  0  0  0
  -22.1570  -24.3250   56.5120 C   0  0  0  0  0  0  0  0  0  0  0  0
  -23.6430  -24.4910   56.3940 C   0  0  0  0  0  0  0  0  0  0  0  0
  -24.2180  -25.8030   55.9500 C   0  0  0  0  0  0  0  0  0  0  0  0
  -25.6320  -26.2610   55.7410 N   0  0  0  0  0  0  0  0  0  0  0  0
  -25.5940  -27.6890   55.2870 C   0  0  0  0  0  0  0  0  0  0  0  0
  -26.7840  -28.5430   54.9620 N   0  0  0  0  0  0  0  0  0  0  0  0
  -28.1680  -27.9770   55.0820 C   0  0  0  0  0  0  0  0  0  0  0  0
  -28.3620  -26.5570   55.5270 O   0  0  0  0  0  0  0  0  0  0  0  0
  -24.1580  -28.1150   55.2140 N   0  0  0  0  0  0  0  0  0  0  0  0
  -23.3070  -26.9490   55.6240 C   0  0  0  0  0  0  0  0  0  0  0  0
  -21.8210  -26.7830   55.7420 C   0  0  0  0  0  0  0  0  0  0  0  0
  -21.7610  -23.4220   56.8170 H   0  0  0  0  0  0  0  0  0  0  0  0
  -24.2700  -23.7020   56.6180 H   0  0  0  0  0  0  0  0  0  0  0  0
  -26.6570  -29.4750   54.6700 H   0  0  0  0  0  0  0  0  0  0  0  0
  -23.8300  -29.0040   54.9450 H   0  0  0  0  0  0  0  0  0  0  0  0
  -21.1940  -27.5720   55.5170 H   0  0  0  0  0  0  0  0  0  0  0  0
  -29.3580  -28.8300   54.7580 O   0  0  0  0  0  0  0  0  0  0  0  0
  -29.9240  -28.8310   53.3680 C   0  0  0  0  0  0  0  0  0  0  0  0
  -29.4780  -28.2230   52.6090 H   0  0  0  0  0  0  0  0  0  0  0  0
  -30.7730  -29.4400   53.1370 H   0  0  0  0  0  0  0  0  0  0  0  0
  -30.3270  -28.8320   52.3770 H   0  0  0  0  0  0  0  0  0  0  0  0
  1  2  1  0
  2  7  1  0
  2  3  2  0
  3  8  1  0
  4  3  1  0
  4 34  1  0
  5  4  2  0
  6  1  2  0
  6  5  1  0
  9  5  1  0
 10  6  1  0
 11 12  1  0
 11 21  1  0
 12 13  2  0
 14  1  1  0
 14 12  1  0
 15 11  1  0
 16 14  1  0
 17 18  1  0
 18 23  1  0
 19 18  2  0
 19 24  1  0
 20 19  1  0
 21 22  1  0
 21 20  2  0
 22 17  2  0
 25 20  1  0
 26 22  1  0
 27 30  1  0
 28 27  1  0
 29 27  1  0
 30 32  1  0
 30 31  1  0
 30 33  1  0
 35 34  1  0
 35 36  1  0
 36 47  1  0
 37 36  2  0
 37 48  1  0
 38 37  1  0
 39 38  1  0
 40 39  2  0
 41 42  1  0
 41 40  1  0
 42 43  2  0
 44 40  1  0
 44 45  1  0
 45 46  1  0
 45 38  2  0
 46 35  2  0
 49 41  1  0
 50 44  1  0
 51 46  1  0
 52 42  1  0
 53 52  1  0
 54 53  1  0
 55 53  1  0
 56 53  1  0
M  END
>  <minimizedAffinity>  (113) 
-9.80471706

$$$$

     RDKit          3D

 52 56  0  0  0  0  0  0  0  0999 V2000
  -18.7100  -29.2840   54.2130 C   0  0  0  0  0  0  0  0  0  0  0  0
  -18.7200  -29.5490   55.6890 C   0  0  0  0  0  0  0  0  0  0  0  0
  -17.9510  -30.7080   56.2480 C   0  0  0  0  0  0  0  0  0  0  0  0
  -17.1710  -31.6030   55.3310 C   0  0  0  0  0  0  0  0  0  0  0  0
  -17.1610  -31.3380   53.8550 C   0  0  0  0  0  0  0  0  0  0  0  0
  -16.3070  -32.3840   53.2020 C   0  0  0  0  0  0  0  0  0  0  0  0
  -15.7890  -33.2960   54.2750 N   0  0  0  0  0  0  0  0  0  0  0  0
  -16.3230  -32.8130   55.5910 N   0  0  0  0  0  0  0  0  0  0  0  0
  -17.9300  -30.1780   53.2960 C   0  0  0  0  0  0  0  0  0  0  0  0
  -19.2570  -28.9330   56.3200 H   0  0  0  0  0  0  0  0  0  0  0  0
  -17.9580  -30.8910   57.2640 H   0  0  0  0  0  0  0  0  0  0  0  0
  -16.1100  -32.4620   52.1920 H   0  0  0  0  0  0  0  0  0  0  0  0
  -17.9230  -29.9960   52.2800 H   0  0  0  0  0  0  0  0  0  0  0  0
  -16.0560  -33.4320   56.9310 C   0  0  0  0  0  0  0  0  0  0  0  0
  -16.6650  -34.2410   57.2770 H   0  0  0  0  0  0  0  0  0  0  0  0
  -15.8670  -33.8740   57.8870 H   0  0  0  0  0  0  0  0  0  0  0  0
  -14.9370  -32.9170   57.7860 C   0  0  0  0  0  0  0  0  0  0  0  0
  -15.1220  -31.6660   58.5910 C   0  0  0  0  0  0  0  0  0  0  0  0
  -14.0030  -31.1510   59.4460 C   0  0  0  0  0  0  0  0  0  0  0  0
  -12.6970  -31.8880   59.4950 C   0  0  0  0  0  0  0  0  0  0  0  0
  -12.5110  -33.1390   58.6900 C   0  0  0  0  0  0  0  0  0  0  0  0
  -13.6310  -33.6540   57.8350 C   0  0  0  0  0  0  0  0  0  0  0  0
  -16.0210  -31.1590   58.5570 H   0  0  0  0  0  0  0  0  0  0  0  0
  -14.1300  -30.2900   60.0000 H   0  0  0  0  0  0  0  0  0  0  0  0
  -11.9260  -31.5340   60.0840 H   0  0  0  0  0  0  0  0  0  0  0  0
  -11.6130  -33.6460   58.7230 H   0  0  0  0  0  0  0  0  0  0  0  0
  -13.5030  -34.5150   57.2810 H   0  0  0  0  0  0  0  0  0  0  0  0
  -19.4800  -28.1240   53.6540 N   0  0  0  0  0  0  0  0  0  0  0  0
  -19.5360  -27.9940   52.6800 H   0  0  0  0  0  0  0  0  0  0  0  0
  -24.6320  -27.3200   55.0890 C   0  0  0  0  0  0  0  0  0  0  0  0
  -23.8260  -26.3050   55.8440 C   0  0  0  0  0  0  0  0  0  0  0  0
  -22.3370  -26.2520   55.6750 C   0  0  0  0  0  0  0  0  0  0  0  0
  -21.5320  -25.2370   56.4300 N   0  0  0  0  0  0  0  0  0  0  0  0
  -20.0420  -25.1840   56.2600 C   0  0  0  0  0  0  0  0  0  0  0  0
  -19.3580  -26.1460   55.3350 N   0  0  0  0  0  0  0  0  0  0  0  0
  -20.1640  -27.1620   54.5790 C   0  0  0  0  0  0  0  0  0  0  0  0
  -21.6530  -27.2140   54.7490 C   0  0  0  0  0  0  0  0  0  0  0  0
  -22.4580  -28.2300   53.9940 C   0  0  0  0  0  0  0  0  0  0  0  0
  -23.9480  -28.2830   54.1640 C   0  0  0  0  0  0  0  0  0  0  0  0
  -24.2970  -25.6430   56.4810 H   0  0  0  0  0  0  0  0  0  0  0  0
  -19.4880  -24.4860   56.7800 H   0  0  0  0  0  0  0  0  0  0  0  0
  -21.9880  -28.8920   53.3570 H   0  0  0  0  0  0  0  0  0  0  0  0
  -26.1210  -27.3730   55.2590 O   0  0  0  0  0  0  0  0  0  0  0  0
  -26.8260  -26.3000   56.0340 C   0  0  0  0  0  0  0  0  0  0  0  0
  -27.8890  -26.3380   56.1550 H   0  0  0  0  0  0  0  0  0  0  0  0
  -26.2670  -25.4970   56.4650 H   0  0  0  0  0  0  0  0  0  0  0  0
  -27.3290  -25.5340   56.5860 H   0  0  0  0  0  0  0  0  0  0  0  0
  -24.7530  -29.2980   53.4080 O   0  0  0  0  0  0  0  0  0  0  0  0
  -24.4020  -30.7530   53.5000 C   0  0  0  0  0  0  0  0  0  0  0  0
  -23.5770  -31.0670   54.1040 H   0  0  0  0  0  0  0  0  0  0  0  0
  -24.9770  -31.4770   52.9610 H   0  0  0  0  0  0  0  0  0  0  0  0
  -24.1510  -31.7910   53.5650 H   0  0  0  0  0  0  0  0  0  0  0  0
  1  2  1  0
  2  3  2  0
  2 10  1  0
  3 11  1  0
  4  8  1  0
  4  3  1  0
  5  4  2  0
  6  5  1  0
  6  7  2  0
  7  8  1  0
  8 14  1  0
  9  5  1  0
  9  1  2  0
 12  6  1  0
 13  9  1  0
 14 15  1  0
 14 17  1  0
 14 16  1  0
 17 22  2  0
 17 18  1  0
 18 19  2  0
 19 20  1  0
 19 24  1  0
 20 25  1  0
 21 26  1  0
 21 20  2  0
 22 21  1  0
 23 18  1  0
 27 22  1  0
 28  1  1  0
 28 36  1  0
 29 28  1  0
 30 43  1  0
 30 31  1  0
 31 40  1  0
 32 31  2  0
 32 33  1  0
 34 33  2  0
 34 41  1  0
 35 34  1  0
 36 37  1  0
 36 35  2  0
 37 32  1  0
 38 39  1  0
 38 37  2  0
 39 30  2  0
 42 38  1  0
 43 44  1  0
 44 45  1  0
 44 46  1  0
 44 47  1  0
 48 49  1  0
 48 39  1  0
 49 52  1  0
 49 50  1  0
 51 49  1  0
M  END
>  <minimizedAffinity>  (114) 
-9.37390804

$$$$

     RDKit          3D

 80 74  0  0  1  0  0  0  0  0999 V2000
  -20.0990  -25.0500   55.9480 C   0  0  0  0  0  0  0  0  0  0  0  0
  -18.6330  -25.1000   55.6360 C   0  0  0  0  0  3  0  0  0  0  0  0
  -17.9410  -26.4230   55.4940 C   0  0  0  0  0 15  0  0  0  0  0  0
  -18.7150  -27.6960   55.6640 C   0  0  0  0  0  3  0  0  0  0  0  0
  -20.1820  -27.6460   55.9750 C   0  0  0  0  0  0  0  0  0  0  0  0
  -20.8740  -26.3230   56.1170 C   0  0  0  0  0  0  0  0  0  0  0  0
  -17.7700  -28.8440   55.4670 N   0  0  0  0  0  0  0  0  0  0  0  0
  -18.1210  -30.3000   55.5470 C   0  0  0  0  0  0  0  0  0  0  0  0
  -19.5310  -30.7150   55.8480 O   0  0  0  0  0  0  0  0  0  0  0  0
  -16.4110  -28.2800   55.1760 C   0  0  0  0  0  3  0  0  0  0  0  0
  -16.5170  -26.7830   55.1930 C   0  0  0  0  0  2  0  0  0  0  0  0
  -18.1000  -24.2240   55.5200 H   0  0  0  0  0  0  0  0  0  0  0  0
  -20.7150  -28.5220   56.0920 H   0  0  0  0  0  0  0  0  0  0  0  0
  -15.5220  -28.8450   54.9890 H   0  0  0  0  0  0  0  0  0  0  0  0
  -15.5150  -27.7280   54.9830 H   0  0  0  0  0  0  0  0  0  0  0  0
  -15.7160  -26.0950   55.0200 H   0  0  0  0  0  0  0  0  0  0  0  0
  -16.7540  -25.7420   55.2390 H   0  0  0  0  0  0  0  0  0  0  0  0
  -22.3400  -26.2730   56.4290 N   0  0  0  0  0  4  0  0  0  0  0  0
  -23.3050  -27.0950   55.6280 C   0  0  0  0  0  0  0  0  0  0  0  0
  -22.8040  -27.9670   54.5150 N   0  0  0  0  0  0  0  0  0  0  0  0
  -23.7700  -28.7890   53.7130 C   0  0  0  0  0  3  0  0  0  0  0  0
  -25.2360  -28.7390   54.0250 C   0  0  0  0  0  0  0  0  0  0  0  0
  -26.4170  -29.4320   53.4120 C   0  0  0  0  0  0  0  0  0  0  0  0
  -27.6480  -28.9890   54.1460 C   0  0  0  0  0  0  0  0  0  0  0  0
  -27.2280  -28.0210   55.2130 N   0  0  0  0  0  0  0  0  0  0  0  0
  -25.7370  -27.8670   55.1380 C   0  0  0  0  0  0  0  0  0  0  0  0
  -24.7720  -27.0450   55.9390 N   0  0  0  0  0  2  0  0  0  0  0  0
  -22.6690  -25.7010   57.1590 H   0  0  0  0  0  0  0  0  0  0  0  0
  -26.3880  -30.0970   52.6240 H   0  0  0  0  0  0  0  0  0  0  0  0
  -28.6140  -29.2950   53.9520 H   0  0  0  0  0  0  0  0  0  0  0  0
  -27.8250  -27.5670   55.8500 H   0  0  0  0  0  0  0  0  0  0  0  0
  -23.2690  -29.6610   52.6000 N   0  0  0  0  0  0  0  0  0  0  0  0
  -23.8990  -30.0190   51.9350 H   0  0  0  0  0  0  0  0  0  0  0  0
  -21.8080  -29.9860   52.5020 C   0  0  0  0  0  0  0  0  0  0  0  0
  -20.8140  -28.8970   52.2220 C   0  0  0  0  0  0  0  0  0  0  0  0
  -19.3530  -29.2230   52.1240 C   0  0  0  0  0  0  0  0  0  0  0  0
  -18.8850  -30.6360   52.3050 C   0  0  0  0  0  0  0  0  0  0  0  0
  -19.8790  -31.7250   52.5840 C   0  0  0  0  0  0  0  0  0  0  0  0
  -19.4110  -33.1390   52.7650 F   0  0  0  0  0  0  0  0  0  0  0  0
  -21.3410  -31.4000   52.6830 C   0  0  0  0  0  0  0  0  0  0  0  0
  -21.1350  -27.9240   52.0980 H   0  0  0  0  0  0  0  0  0  0  0  0
  -18.6700  -28.4740   51.9320 H   0  0  0  0  0  0  0  0  0  0  0  0
  -17.8810  -30.8600   52.2370 H   0  0  0  0  0  0  0  0  0  0  0  0
  -22.3340  -32.4880   52.9620 C   0  0  0  0  0  0  0  0  0  0  0  0
  -22.2510  -33.2700   54.2390 N   0  0  0  0  0  0  0  0  0  0  0  0
  -23.4110  -32.7950   51.9640 O   0  0  0  0  0  0  0  0  0  0  0  0
  -22.9020  -33.9840   54.4230 H   0  0  0  0  0  0  0  0  0  0  0  0
  -21.5440  -33.0690   54.8940 H   0  0  0  0  0  0  0  0  0  0  0  0
  -17.0640  -31.3400   55.3260 C   0  0  0  0  0  3  0  0  0  0  0  0
  -17.1240  -31.9930   54.4800 H   0  0  0  0  0  0  0  0  0  0  0  0
  -16.3100  -32.0830   55.1680 H   0  0  0  0  0  0  0  0  0  0  0  0
  -15.9210  -31.4650   56.2900 N   0  0  0  0  0 15  0  0  0  0  0  0
  -16.1710  -31.9380   57.6910 C   0  0  0  0  0  2  0  0  0  0  0  0
  -15.0280  -32.0630   58.6550 C   0  0  0  0  0  2  0  0  0  0  0  0
  -13.6360  -31.7160   58.2180 N   0  0  0  0  0  1  0  0  0  0  0  0
  -13.3870  -31.2430   56.8150 C   0  0  0  0  0  2  0  0  0  0  0  0
  -14.5300  -31.1180   55.8520 C   0  0  0  0  0  2  0  0  0  0  0  0
  -17.1640  -32.1860   58.0040 H   0  0  0  0  0  0  0  0  0  0  0  0
  -16.3490  -32.2750   58.6910 H   0  0  0  0  0  0  0  0  0  0  0  0
  -15.2070  -32.4000   59.6550 H   0  0  0  0  0  0  0  0  0  0  0  0
  -14.2130  -32.1530   59.3430 H   0  0  0  0  0  0  0  0  0  0  0  0
  -12.3940  -30.9960   56.5030 H   0  0  0  0  0  0  0  0  0  0  0  0
  -13.2090  -30.9070   55.8160 H   0  0  0  0  0  0  0  0  0  0  0  0
  -14.3510  -30.7810   54.8520 H   0  0  0  0  0  0  0  0  0  0  0  0
  -15.3440  -31.0290   55.1640 H   0  0  0  0  0  0  0  0  0  0  0  0
  -12.4940  -31.8410   59.1810 C   0  0  0  0  0  0  0  0  0  0  0  0
  -11.6780  -31.9310   59.8680 H   0  0  0  0  0  0  0  0  0  0  0  0
  -11.4210  -32.8620   58.9430 C   0  0  0  0  0  0  0  0  0  0  0  0
  -11.4700  -33.5000   58.0850 H   0  0  0  0  0  0  0  0  0  0  0  0
  -10.6050  -32.9510   59.6300 H   0  0  0  0  0  0  0  0  0  0  0  0
  -10.6550  -33.5900   58.7730 H   0  0  0  0  0  0  0  0  0  0  0  0
  -12.4250  -30.9460   60.3830 C   0  0  0  0  0  0  0  0  0  0  0  0
  -11.6090  -31.0360   61.0700 H   0  0  0  0  0  0  0  0  0  0  0  0
  -13.1890  -30.2190   60.5530 H   0  0  0  0  0  0  0  0  0  0  0  0
  -12.3740  -30.3090   61.2400 H   0  0  0  0  0  0  0  0  0  0  0  0
  -20.7910  -23.7260   56.0900 O   0  0  0  0  0  0  0  0  0  0  0  0
  -22.2270  -23.6730   56.5180 C   0  0  0  0  0  0  0  0  0  0  0  0
  -22.7210  -22.7290   56.6190 H   0  0  0  0  0  0  0  0  0  0  0  0
  -22.7590  -24.5790   56.7220 H   0  0  0  0  0  0  0  0  0  0  0  0
  -23.2520  -23.6350   56.8230 H   0  0  0  0  0  0  0  0  0  0  0  0
  1 76  1  0
  1  6  1  0
  2  1  2  0
  4  5  2  0
  5 13  1  0
  5  6  1  0
  6 18  2  0
  7  8  1  0
  7  4  1  0
  8  9  2  0
 10  7  1  0
 11 17  1  0
 12  2  1  0
 14 10  1  0
 15 10  1  0
 16 11  1  0
 18 28  1  0
 19 27  1  0
 19 18  1  0
 20 19  2  0
 21 32  1  0
 21 22  1  0
 21 20  1  0
 22 26  2  0
 23 22  1  0
 23 24  2  0
 24 25  1  0
 25 31  1  0
 26 25  1  0
 26 27  1  0
 29 23  1  0
 30 24  1  0
 33 32  1  0
 34 32  1  0
 34 40  1  0
 35 34  2  0
 36 35  1  0
 36 37  2  0
 37 38  1  0
 38 40  2  0
 38 39  1  0
 40 44  1  0
 41 35  1  0
 42 36  1  0
 43 37  1  0
 44 45  1  0
 45 47  1  0
 45 48  1  0
 46 44  2  0
 49  8  1  0
 50 49  1  0
 51 49  1  0
 53 58  1  0
 53 59  1  0
 54 61  1  0
 54 60  1  0
 55 66  1  0
 62 56  1  0
 63 56  1  0
 64 57  1  0
 65 57  1  0
 66 67  1  0
 66 72  1  0
 68 66  1  0
 68 70  1  0
 69 68  1  0
 71 68  1  0
 72 74  1  0
 72 73  1  0
 72 75  1  0
 76 77  1  0
 77 78  1  0
 77 79  1  0
 77 80  1  0
M  END
>  <minimizedAffinity>  (115) 
-10.7864275

$$$$

     RDKit          3D

 47 51  0  0  0  0  0  0  0  0999 V2000
  -18.5590  -30.2460   54.7250 C   0  0  0  0  0  0  0  0  0  0  0  0
  -17.9870  -31.5890   55.0670 C   0  0  0  0  0  0  0  0  0  0  0  0
  -18.8030  -32.6350   54.3670 N   0  0  0  0  0  0  0  0  0  0  0  0
  -19.8810  -31.9370   53.5910 N   0  0  0  0  0  0  0  0  0  0  0  0
  -20.9800  -32.4550   52.7120 N   0  0  0  0  0  0  0  0  0  0  0  0
  -21.9280  -31.4970   52.0530 C   0  0  0  0  0  0  0  0  0  0  0  0
  -21.7770  -30.0210   52.2740 C   0  0  0  0  0  0  0  0  0  0  0  0
  -20.6780  -29.5030   53.1530 C   0  0  0  0  0  0  0  0  0  0  0  0
  -19.7300  -30.4610   53.8120 C   0  0  0  0  0  0  0  0  0  0  0  0
  -22.6850  -31.8540   51.4480 H   0  0  0  0  0  0  0  0  0  0  0  0
  -22.4300  -29.3620   51.8210 H   0  0  0  0  0  0  0  0  0  0  0  0
  -20.5740  -28.4880   53.3050 H   0  0  0  0  0  0  0  0  0  0  0  0
  -19.4740  -25.4010   56.3640 N   0  0  0  0  0  0  0  0  0  0  0  0
  -18.5070  -26.4990   56.0280 C   0  0  0  0  0  0  0  0  0  0  0  0
  -17.0320  -26.2700   56.1770 N   0  0  0  0  0  0  0  0  0  0  0  0
  -16.0660  -27.3670   55.8410 C   0  0  0  0  0  0  0  0  0  0  0  0
  -16.5750  -28.6920   55.3570 C   0  0  0  0  0  0  0  0  0  0  0  0
  -18.0500  -28.9210   55.2090 C   0  0  0  0  0  0  0  0  0  0  0  0
  -19.0160  -27.8230   55.5450 N   0  0  0  0  0  0  0  0  0  0  0  0
  -19.1390  -24.5320   56.6820 H   0  0  0  0  0  0  0  0  0  0  0  0
  -15.0520  -27.2100   55.9430 H   0  0  0  0  0  0  0  0  0  0  0  0
  -15.9100  -29.4470   55.1260 H   0  0  0  0  0  0  0  0  0  0  0  0
  -25.3740  -26.3160   55.7710 F   0  0  0  0  0  0  0  0  0  0  0  0
  -23.8980  -26.0870   55.9200 C   0  0  0  0  0  0  0  0  0  0  0  0
  -23.3860  -24.7380   56.3280 C   0  0  0  0  0  0  0  0  0  0  0  0
  -21.9100  -24.5090   56.4770 C   0  0  0  0  0  0  0  0  0  0  0  0
  -20.9490  -25.6290   56.2160 C   0  0  0  0  0  0  0  0  0  0  0  0
  -21.4610  -26.9790   55.8070 C   0  0  0  0  0  0  0  0  0  0  0  0
  -22.9360  -27.2070   55.6590 C   0  0  0  0  0  0  0  0  0  0  0  0
  -23.4490  -28.5570   55.2500 F   0  0  0  0  0  0  0  0  0  0  0  0
  -24.0490  -23.9670   56.5080 H   0  0  0  0  0  0  0  0  0  0  0  0
  -21.5580  -23.5810   56.7580 H   0  0  0  0  0  0  0  0  0  0  0  0
  -20.7990  -27.7490   55.6280 H   0  0  0  0  0  0  0  0  0  0  0  0
  -16.8050  -31.8430   55.9550 C   0  0  0  0  0  0  0  0  0  0  0  0
  -15.4420  -32.0250   55.3560 C   0  0  0  0  0  0  0  0  0  0  0  0
  -14.2600  -32.2790   56.2440 C   0  0  0  0  0  0  0  0  0  0  0  0
  -14.4400  -32.3500   57.7310 C   0  0  0  0  0  0  0  0  0  0  0  0
  -15.8030  -32.1680   58.3310 C   0  0  0  0  0  0  0  0  0  0  0  0
  -16.9850  -31.9150   57.4430 C   0  0  0  0  0  0  0  0  0  0  0  0
  -15.3170  -31.9750   54.3320 H   0  0  0  0  0  0  0  0  0  0  0  0
  -13.3220  -32.4040   55.8310 H   0  0  0  0  0  0  0  0  0  0  0  0
  -15.9280  -32.2180   59.3540 H   0  0  0  0  0  0  0  0  0  0  0  0
  -17.9230  -31.7890   57.8550 H   0  0  0  0  0  0  0  0  0  0  0  0
  -13.2580  -32.6040   58.6190 C   0  0  0  0  0  0  0  0  0  0  0  0
  -12.0760  -32.8580   59.5070 F   0  0  0  0  0  0  0  0  0  0  0  0
  -13.1300  -31.1310   58.8690 F   0  0  0  0  0  0  0  0  0  0  0  0
  -13.3870  -34.0770   58.3690 F   0  0  0  0  0  0  0  0  0  0  0  0
  1  2  1  0
  1 18  1  0
  2 34  1  0
  3  2  2  0
  4  9  1  0
  4  3  1  0
  5  4  1  0
  6  7  1  0
  6  5  2  0
  7  8  2  0
  8 12  1  0
  8  9  1  0
  9  1  2  0
 10  6  1  0
 11  7  1  0
 13 20  1  0
 14 15  2  0
 14 13  1  0
 16 21  1  0
 16 15  1  0
 17 16  2  0
 18 17  1  0
 18 19  2  0
 19 14  1  0
 22 17  1  0
 23 24  1  0
 24 25  1  0
 25 26  2  0
 25 31  1  0
 26 32  1  0
 27 13  1  0
 27 26  1  0
 28 27  2  0
 29 28  1  0
 29 24  2  0
 30 29  1  0
 33 28  1  0
 34 39  1  0
 35 34  2  0
 35 36  1  0
 36 37  2  0
 37 38  1  0
 37 44  1  0
 38 42  1  0
 39 43  1  0
 39 38  2  0
 40 35  1  0
 41 36  1  0
 44 46  1  0
 44 45  1  0
 47 44  1  0
M  END
>  <minimizedAffinity>  (116) 
-10.1408768

$$$$

     RDKit          3D

 62 59  0  0  0  0  0  0  0  0999 V2000
  -19.7940  -26.5610   55.5390 N   0  0  0  0  0  0  0  0  0  0  0  0
  -19.3070  -25.3180   56.2230 C   0  0  0  0  0  0  0  0  0  0  0  0
  -20.5010  -24.4760   56.5630 N   0  0  0  0  0  0  0  0  0  0  0  0
  -21.7270  -25.1990   56.0880 C   0  0  0  0  0  0  0  0  0  0  0  0
  -23.1850  -24.8500   56.1510 C   0  0  0  0  0  0  0  0  0  0  0  0
  -24.2060  -25.7890   55.5800 C   0  0  0  0  0  0  0  0  0  0  0  0
  -23.7690  -27.0770   54.9470 C   0  0  0  0  0  0  0  0  0  0  0  0
  -22.3110  -27.4260   54.8850 C   0  0  0  0  0  0  0  0  0  0  0  0
  -21.2910  -26.4870   55.4550 C   0  0  0  0  0  0  0  0  0  0  0  0
  -18.3230  -25.0840   56.4250 H   0  0  0  0  0  0  0  0  0  0  0  0
  -23.4850  -23.9640   56.5860 H   0  0  0  0  0  0  0  0  0  0  0  0
  -25.2090  -25.5500   55.6230 H   0  0  0  0  0  0  0  0  0  0  0  0
  -22.0110  -28.3120   54.4490 H   0  0  0  0  0  0  0  0  0  0  0  0
  -17.1210  -29.2710   54.7850 C   0  0  0  0  0  0  0  0  0  0  0  0
  -17.6290  -28.1260   55.6090 C   0  0  0  0  0  0  0  0  0  0  0  0
  -18.9370  -27.6800   55.0270 C   0  0  0  0  0  0  0  0  0  0  0  0
  -19.2380  -28.5510   53.8430 S   0  0  0  0  0  0  0  0  0  0  0  0
  -18.1160  -29.5350   53.6940 C   0  0  0  0  0  0  0  0  0  0  0  0
  -17.1600  -27.7160   56.4320 H   0  0  0  0  0  0  0  0  0  0  0  0
  -18.0080  -30.5940   52.6390 C   0  0  0  0  0  0  0  0  0  0  0  0
  -16.6630  -31.1410   52.2580 N   0  0  0  0  0  0  0  0  0  0  0  0
  -19.2440  -31.1100   51.9630 O   0  0  0  0  0  0  0  0  0  0  0  0
  -16.5930  -31.8360   51.5660 H   0  0  0  0  0  0  0  0  0  0  0  0
  -15.8510  -30.8030   52.7020 H   0  0  0  0  0  0  0  0  0  0  0  0
  -15.8430  -30.0230   55.0120 O   0  0  0  0  0  1  0  0  0  0  0  0
  -15.8210  -31.2020   55.9400 C   0  0  0  0  0  3  0  0  0  0  0  0
  -16.5870  -31.1200   55.1980 H   0  0  0  0  0  0  0  0  0  0  0  0
  -14.7470  -31.3180   56.9800 C   0  0  0  0  0  0  0  0  0  0  0  0
  -15.0660  -31.0580   58.4230 C   0  0  0  0  0  0  0  0  0  0  0  0
  -13.9920  -31.1740   59.4620 C   0  0  0  0  0  0  0  0  0  0  0  0
  -12.5960  -31.5490   59.0590 C   0  0  0  0  0  0  0  0  0  0  0  0
  -12.2760  -31.8090   57.6170 C   0  0  0  0  0  0  0  0  0  0  0  0
  -13.3520  -31.6930   56.5780 C   0  0  0  0  0  0  0  0  0  0  0  0
  -13.0310  -31.9530   55.1360 Cl  0  0  0  0  0  0  0  0  0  0  0  0
  -16.0270  -30.8000   58.6990 H   0  0  0  0  0  0  0  0  0  0  0  0
  -14.2110  -30.9950   60.4550 H   0  0  0  0  0  0  0  0  0  0  0  0
  -11.8570  -31.6290   59.7740 H   0  0  0  0  0  0  0  0  0  0  0  0
  -11.3160  -32.0680   57.3400 H   0  0  0  0  0  0  0  0  0  0  0  0
  -16.8730  -32.2640   55.8270 C   0  0  0  0  0  0  0  0  0  0  0  0
  -16.8580  -33.1060   56.4890 H   0  0  0  0  0  0  0  0  0  0  0  0
  -17.6400  -32.1810   55.0850 H   0  0  0  0  0  0  0  0  0  0  0  0
  -17.6250  -33.0230   55.7470 H   0  0  0  0  0  0  0  0  0  0  0  0
  -24.7900  -28.0170   54.3770 O   0  0  0  0  0  0  0  0  0  0  0  0
  -25.8780  -28.5630   55.2520 C   0  0  0  0  0  2  0  0  0  0  0  0
  -25.6870  -29.8740   55.9560 C   0  0  0  0  0  2  0  0  0  0  0  0
  -26.7760  -30.4210   56.8310 C   0  0  0  0  0  2  0  0  0  0  0  0
  -28.0550  -29.6570   57.0040 N   0  0  0  0  0  1  0  0  0  0  0  0
  -28.2450  -28.3460   56.3000 C   0  0  0  0  0  2  0  0  0  0  0  0
  -27.1570  -27.7990   55.4250 C   0  0  0  0  0  2  0  0  0  0  0  0
  -26.6550  -28.9530   55.8770 H   0  0  0  0  0  0  0  0  0  0  0  0
  -24.7750  -30.4200   55.8330 H   0  0  0  0  0  0  0  0  0  0  0  0
  -25.5510  -30.8100   56.4570 H   0  0  0  0  0  0  0  0  0  0  0  0
  -26.6390  -31.3560   57.3330 H   0  0  0  0  0  0  0  0  0  0  0  0
  -27.5520  -30.8110   57.4560 H   0  0  0  0  0  0  0  0  0  0  0  0
  -29.1580  -27.8000   56.4230 H   0  0  0  0  0  0  0  0  0  0  0  0
  -28.3820  -27.4100   55.7980 H   0  0  0  0  0  0  0  0  0  0  0  0
  -27.2930  -26.8640   54.9230 H   0  0  0  0  0  0  0  0  0  0  0  0
  -26.3820  -27.4090   54.8000 H   0  0  0  0  0  0  0  0  0  0  0  0
  -29.1430  -30.2040   57.8790 C   0  0  0  0  0  0  0  0  0  0  0  0
  -29.0070  -31.1390   58.3810 H   0  0  0  0  0  0  0  0  0  0  0  0
  -30.0560  -29.6580   58.0020 H   0  0  0  0  0  0  0  0  0  0  0  0
  -29.9200  -30.5940   58.5040 H   0  0  0  0  0  0  0  0  0  0  0  0
  1  2  1  0
  2 10  1  0
  2  3  2  0
  4  5  1  0
  4  3  1  0
  5 11  1  0
  6 12  1  0
  6  5  2  0
  7  6  1  0
  8  7  2  0
  8  9  1  0
  9  1  1  0
  9  4  2  0
 13  8  1  0
 14 25  1  0
 14 15  1  0
 15 19  1  0
 16  1  1  0
 16 15  2  0
 17 16  1  0
 18 17  1  0
 18 14  2  0
 20 18  1  0
 21 20  1  0
 21 24  1  0
 22 20  2  0
 23 21  1  0
 26 28  1  0
 27 26  1  0
 28 29  1  0
 29 35  1  0
 29 30  2  0
 30 36  1  0
 31 30  1  0
 31 37  1  0
 32 31  2  0
 33 28  2  0
 33 32  1  0
 34 33  1  0
 38 32  1  0
 39 26  1  0
 39 40  1  0
 41 39  1  0
 42 39  1  0
 43  7  1  0
 43 44  1  0
 44 50  1  0
 45 52  1  0
 46 53  1  0
 46 54  1  0
 47 59  1  0
 48 55  1  0
 51 45  1  0
 56 48  1  0
 57 49  1  0
 58 49  1  0
 59 61  1  0
 59 60  1  0
 59 62  1  0
M  END
>  <minimizedAffinity>  (117) 
-10.7404356

$$$$

     RDKit          3D

 48 49  0  0  1  0  0  0  0  0999 V2000
  -20.4580  -27.6470   55.5700 N   0  0  0  0  0  0  0  0  0  0  0  0
  -20.7620  -29.1070   55.4040 N   0  0  0  0  0  0  0  0  0  0  0  0
  -19.4680  -29.8250   55.1610 C   0  0  0  0  0  0  0  0  0  0  0  0
  -18.3640  -28.8090   55.1750 C   0  0  0  0  0  0  0  0  0  0  0  0
  -16.8810  -28.9360   54.9910 C   0  0  0  0  0  3  0  0  0  0  0  0
  -16.0100  -27.7170   55.0600 N   0  0  0  0  0  0  0  0  0  0  0  0
  -16.6220  -26.3710   55.3130 C   0  0  0  0  0  0  0  0  0  0  0  0
  -18.1050  -26.2440   55.4970 N   0  0  0  0  0  2  0  0  0  0  0  0
  -18.9760  -27.4630   55.4280 C   0  0  0  0  0  0  0  0  0  0  0  0
  -19.3560  -30.8400   55.0100 H   0  0  0  0  0  0  0  0  0  0  0  0
  -16.0230  -25.5320   55.3600 H   0  0  0  0  0  0  0  0  0  0  0  0
  -23.8810  -25.6400   55.6310 C   0  0  0  0  0  0  0  0  0  0  0  0
  -23.4650  -24.3920   56.3530 C   0  0  0  0  0  0  0  0  0  0  0  0
  -22.0470  -24.2290   56.8140 C   0  0  0  0  0  0  0  0  0  0  0  0
  -21.0440  -25.3150   56.5520 C   0  0  0  0  0  0  0  0  0  0  0  0
  -21.4610  -26.5620   55.8310 C   0  0  0  0  0  0  0  0  0  0  0  0
  -22.8780  -26.7250   55.3700 C   0  0  0  0  0  0  0  0  0  0  0  0
  -24.1540  -23.6450   56.5320 H   0  0  0  0  0  0  0  0  0  0  0  0
  -21.7600  -23.3720   57.3100 H   0  0  0  0  0  0  0  0  0  0  0  0
  -20.0690  -25.2030   56.8690 H   0  0  0  0  0  0  0  0  0  0  0  0
  -23.1650  -27.5830   54.8740 H   0  0  0  0  0  0  0  0  0  0  0  0
  -25.2990  -25.8020   55.1700 N   0  0  0  0  0  2  0  0  0  0  0  0
  -25.6220  -25.3060   54.3850 H   0  0  0  0  0  0  0  0  0  0  0  0
  -26.2270  -26.7230   55.9080 C   0  0  0  0  0  2  0  0  0  0  0  0
  -26.6700  -26.4090   56.8300 H   0  0  0  0  0  0  0  0  0  0  0  0
  -26.0090  -25.7530   56.3040 H   0  0  0  0  0  0  0  0  0  0  0  0
  -26.5320  -28.0820   55.3530 C   0  0  0  0  0  3  0  0  0  0  0  0
  -27.3580  -28.2140   54.6850 H   0  0  0  0  0  0  0  0  0  0  0  0
  -27.1400  -27.2440   55.0810 H   0  0  0  0  0  0  0  0  0  0  0  0
  -25.6810  -29.2570   55.7340 C   0  0  0  0  0  0  0  0  0  0  0  0
  -24.8550  -29.1240   56.4020 H   0  0  0  0  0  0  0  0  0  0  0  0
  -25.8990  -30.2260   55.3380 H   0  0  0  0  0  0  0  0  0  0  0  0
  -25.0740  -30.0940   56.0050 H   0  0  0  0  0  0  0  0  0  0  0  0
  -16.2690  -30.2820   54.7390 N   0  0  0  0  0  0  0  0  0  0  0  0
  -16.6120  -30.8500   54.0120 H   0  0  0  0  0  0  0  0  0  0  0  0
  -15.1330  -30.7620   55.5930 N   0  0  0  0  0  0  0  0  0  0  0  0
  -15.3880  -31.1850   57.0090 C   0  0  0  0  0  0  0  0  0  0  0  0
  -16.3440  -31.1460   57.3960 H   0  0  0  0  0  0  0  0  0  0  0  0
  -14.2520  -31.6650   57.8640 C   0  0  0  0  0  0  0  0  0  0  0  0
  -13.3760  -32.7860   57.3880 C   0  0  0  0  0  0  0  0  0  0  0  0
  -12.2410  -33.2660   58.2420 C   0  0  0  0  0  0  0  0  0  0  0  0
  -11.9810  -32.6250   59.5730 N   0  0  0  0  0  0  0  0  0  0  0  0
  -12.8570  -31.5040   60.0500 C   0  0  0  0  0  0  0  0  0  0  0  0
  -13.9930  -31.0240   59.1950 C   0  0  0  0  0  0  0  0  0  0  0  0
  -13.5550  -33.2270   56.4710 H   0  0  0  0  0  0  0  0  0  0  0  0
  -11.6380  -34.0370   57.9140 H   0  0  0  0  0  0  0  0  0  0  0  0
  -12.6790  -31.0640   60.9660 H   0  0  0  0  0  0  0  0  0  0  0  0
  -14.5950  -30.2530   59.5230 H   0  0  0  0  0  0  0  0  0  0  0  0
  1 16  1  0
  2  1  1  0
  3  4  1  0
  3  2  2  0
  4  9  2  0
  5 34  1  0
  5  6  1  0
  5  4  1  0
  6  7  2  0
  7 11  1  0
  7  8  1  0
  9  8  1  0
  9  1  1  0
 10  3  1  0
 12 13  1  0
 13 18  1  0
 13 14  2  0
 14 19  1  0
 15 14  1  0
 15 20  1  0
 16 15  2  0
 17 12  2  0
 17 16  1  0
 21 17  1  0
 22 12  1  0
 23 22  1  0
 24 26  1  0
 24 25  1  0
 27 30  1  0
 28 27  1  0
 29 27  1  0
 30 33  1  0
 30 31  1  0
 32 30  1  0
 34 36  1  0
 35 34  1  0
 36 37  2  0
 37 38  1  0
 37 39  1  0
 39 44  1  0
 40 39  2  0
 40 41  1  0
 41 42  2  0
 42 43  1  0
 43 47  1  0
 44 48  1  0
 44 43  2  0
 45 40  1  0
 46 41  1  0
M  END
>  <minimizedAffinity>  (118) 
-9.8705759

$$$$

     RDKit          3D

 51 55  0  0  0  0  0  0  0  0999 V2000
  -22.6460  -26.3390   55.6850 C   0  0  0  0  0  0  0  0  0  0  0  0
  -22.7160  -24.9040   56.1140 C   0  0  0  0  0  0  0  0  0  0  0  0
  -21.4580  -24.1600   56.4560 C   0  0  0  0  0  0  0  0  0  0  0  0
  -20.1310  -24.8530   56.3700 N   0  0  0  0  0  0  0  0  0  0  0  0
  -20.0610  -26.2890   55.9420 C   0  0  0  0  0  0  0  0  0  0  0  0
  -21.3180  -27.0320   55.5990 C   0  0  0  0  0  0  0  0  0  0  0  0
  -23.6290  -24.4260   56.1730 H   0  0  0  0  0  0  0  0  0  0  0  0
  -21.5070  -23.1730   56.7510 H   0  0  0  0  0  0  0  0  0  0  0  0
  -21.2700  -28.0200   55.3050 H   0  0  0  0  0  0  0  0  0  0  0  0
  -18.7330  -26.9820   55.8560 C   0  0  0  0  0  0  0  0  0  0  0  0
  -17.4740  -26.2320   56.1780 C   0  0  0  0  0  0  0  0  0  0  0  0
  -16.1470  -26.9250   56.0920 C   0  0  0  0  0  0  0  0  0  0  0  0
  -16.0770  -28.3670   55.6850 C   0  0  0  0  0  0  0  0  0  0  0  0
  -17.3370  -29.1170   55.3630 C   0  0  0  0  0  0  0  0  0  0  0  0
  -18.6650  -28.4240   55.4490 C   0  0  0  0  0  0  0  0  0  0  0  0
  -17.5210  -25.2410   56.4570 H   0  0  0  0  0  0  0  0  0  0  0  0
  -15.2800  -26.4100   56.3130 H   0  0  0  0  0  0  0  0  0  0  0  0
  -17.2900  -30.1090   55.0830 H   0  0  0  0  0  0  0  0  0  0  0  0
  -19.5310  -28.9390   55.2280 H   0  0  0  0  0  0  0  0  0  0  0  0
  -14.7500  -29.0600   55.5990 O   0  0  0  0  0  0  0  0  0  0  0  0
  -14.6020  -30.4630   56.1100 C   0  0  0  0  0  0  0  0  0  0  0  0
  -15.4310  -30.9510   56.5800 H   0  0  0  0  0  0  0  0  0  0  0  0
  -14.4970  -31.4640   56.4750 H   0  0  0  0  0  0  0  0  0  0  0  0
  -13.2950  -31.1820   55.9620 C   0  0  0  0  0  0  0  0  0  0  0  0
  -12.8440  -31.2790   54.9960 H   0  0  0  0  0  0  0  0  0  0  0  0
  -12.3620  -31.6950   55.8560 H   0  0  0  0  0  0  0  0  0  0  0  0
  -12.6190  -31.7660   57.1660 N   0  0  0  0  0  0  0  0  0  0  0  0
  -11.2120  -31.4900   57.6090 C   0  0  0  0  0  0  0  0  0  0  0  0
  -10.9550  -32.2820   58.8560 C   0  0  0  0  0  0  0  0  0  0  0  0
  -12.2020  -33.0470   59.1860 N   0  0  0  0  0  0  0  0  0  0  0  0
  -13.2310  -32.7280   58.1410 C   0  0  0  0  0  0  0  0  0  0  0  0
  -10.5400  -30.8650   57.1380 H   0  0  0  0  0  0  0  0  0  0  0  0
  -10.0740  -32.2970   59.3940 H   0  0  0  0  0  0  0  0  0  0  0  0
  -14.1910  -33.1050   58.1000 H   0  0  0  0  0  0  0  0  0  0  0  0
  -23.9860  -28.3560   54.5540 C   0  0  0  0  0  0  0  0  0  0  0  0
  -25.4310  -28.7450   54.4510 N   0  0  0  0  0  0  0  0  0  0  0  0
  -26.2410  -27.7110   55.1770 N   0  0  0  0  0  0  0  0  0  0  0  0
  -25.2960  -26.6840   55.7270 C   0  0  0  0  0  0  0  0  0  0  0  0
  -23.9020  -27.0820   55.3420 C   0  0  0  0  0  0  0  0  0  0  0  0
  -27.2210  -27.7070   55.2750 H   0  0  0  0  0  0  0  0  0  0  0  0
  -25.5580  -25.8500   56.2750 H   0  0  0  0  0  0  0  0  0  0  0  0
  -20.5100  -30.6150   52.8020 C   0  0  0  0  0  0  0  0  0  0  0  0
  -21.0750  -29.4290   52.0780 C   0  0  0  0  0  0  0  0  0  0  0  0
  -22.2330  -28.6760   52.6620 C   0  0  0  0  0  0  0  0  0  0  0  0
  -22.8270  -29.1090   53.9700 C   0  0  0  0  0  0  0  0  0  0  0  0
  -22.2620  -30.2950   54.6930 N   0  0  0  0  0  0  0  0  0  0  0  0
  -21.1040  -31.0480   54.1090 C   0  0  0  0  0  0  0  0  0  0  0  0
  -19.7130  -31.1330   52.4000 H   0  0  0  0  0  0  0  0  0  0  0  0
  -20.6670  -29.1300   51.1780 H   0  0  0  0  0  0  0  0  0  0  0  0
  -22.6220  -27.8590   52.1640 H   0  0  0  0  0  0  0  0  0  0  0  0
  -20.7150  -31.8650   54.6070 H   0  0  0  0  0  0  0  0  0  0  0  0
  1  2  1  0
  2  7  1  0
  2  3  2  0
  3  8  1  0
  4  3  1  0
  5  4  2  0
  6  1  2  0
  6  5  1  0
  9  6  1  0
 10  5  1  0
 10 11  1  0
 11 16  1  0
 12 11  2  0
 12 17  1  0
 13 12  1  0
 14 15  1  0
 14 13  2  0
 15 10  2  0
 18 14  1  0
 19 15  1  0
 20 13  1  0
 20 21  1  0
 21 23  1  0
 21 22  1  0
 24 21  1  0
 24 27  1  0
 25 24  1  0
 26 24  1  0
 27 28  1  0
 27 31  1  0
 28 29  2  0
 29 30  1  0
 29 33  1  0
 31 30  2  0
 32 28  1  0
 34 31  1  0
 35 39  1  0
 36 35  2  0
 36 37  1  0
 37 40  1  0
 37 38  1  0
 38 41  1  0
 39  1  1  0
 39 38  2  0
 42 47  1  0
 43 44  1  0
 43 42  2  0
 44 45  2  0
 45 35  1  0
 45 46  1  0
 47 51  1  0
 47 46  2  0
 48 42  1  0
 49 43  1  0
 50 44  1  0
M  END
>  <minimizedAffinity>  (119) 
-9.88944244

$$$$

     RDKit          3D

 47 50  0  0  1  0  0  0  0  0999 V2000
  -15.0880  -30.9060   56.9930 C   0  0  0  0  0  0  0  0  0  0  0  0
  -16.2200  -31.8760   56.8270 C   0  0  0  0  0  0  0  0  0  0  0  0
  -17.3730  -31.5380   55.9310 C   0  0  0  0  0  0  0  0  0  0  0  0
  -17.3950  -30.2290   55.1990 C   0  0  0  0  0  0  0  0  0  0  0  0
  -16.2640  -29.2580   55.3630 C   0  0  0  0  0  0  0  0  0  0  0  0
  -15.1100  -29.5970   56.2610 C   0  0  0  0  0  0  0  0  0  0  0  0
  -16.2040  -32.7770   57.3310 H   0  0  0  0  0  0  0  0  0  0  0  0
  -18.1520  -32.2060   55.8170 H   0  0  0  0  0  0  0  0  0  0  0  0
  -16.2780  -28.3580   54.8600 H   0  0  0  0  0  0  0  0  0  0  0  0
  -14.3310  -28.9290   56.3740 H   0  0  0  0  0  0  0  0  0  0  0  0
  -12.7540  -31.4520   54.8590 N   0  0  0  0  0  0  0  0  0  0  0  0
  -11.9270  -31.7150   56.0830 C   0  0  0  0  0  0  0  0  0  0  0  0
  -10.4830  -32.0940   55.9460 N   0  0  0  0  0  0  0  0  0  0  0  0
   -9.6570  -32.3570   57.1700 C   0  0  0  0  0  3  0  0  0  0  0  0
  -10.2750  -32.2400   58.5310 N   0  0  0  0  0  0  0  0  0  0  0  0
  -11.7200  -31.8610   58.6690 C   0  0  0  0  0  0  0  0  0  0  0  0
  -12.5970  -31.6690   59.8710 O   0  0  0  0  0  0  0  0  0  0  0  0
  -13.9650  -31.2890   59.3880 C   0  0  0  0  0  0  0  0  0  0  0  0
  -13.9350  -31.2440   57.8890 C   0  0  0  0  0  0  0  0  0  0  0  0
  -12.5460  -31.5980   57.4450 C   0  0  0  0  0  3  0  0  0  0  0  0
  -12.3470  -31.5290   53.9650 H   0  0  0  0  0  0  0  0  0  0  0  0
  -13.7020  -31.2030   54.9500 H   0  0  0  0  0  0  0  0  0  0  0  0
   -8.6620  -32.6180   57.0750 H   0  0  0  0  0  0  0  0  0  0  0  0
  -14.7850  -31.0910   59.9840 H   0  0  0  0  0  0  0  0  0  0  0  0
  -18.5490  -29.8900   54.3010 N   0  0  0  0  0  0  0  0  0  0  0  0
  -19.7290  -29.1430   54.8480 C   0  0  0  0  0  0  0  0  0  0  0  0
  -19.7560  -28.7350   56.2910 O   0  0  0  0  0  0  0  0  0  0  0  0
  -20.8820  -28.8040   53.9510 N   0  0  0  0  0  0  0  0  0  0  0  0
  -18.5310  -30.1580   53.3540 H   0  0  0  0  0  0  0  0  0  0  0  0
  -20.8650  -29.0720   53.0030 H   0  0  0  0  0  0  0  0  0  0  0  0
  -22.0630  -28.0570   54.4970 C   0  0  0  0  0  0  0  0  0  0  0  0
  -21.8630  -26.7400   55.1870 C   0  0  0  0  0  0  0  0  0  0  0  0
  -23.0440  -25.9930   55.7340 C   0  0  0  0  0  0  0  0  0  0  0  0
  -24.4240  -26.5620   55.5900 C   0  0  0  0  0  0  0  0  0  0  0  0
  -24.6230  -27.8800   54.9000 C   0  0  0  0  0  0  0  0  0  0  0  0
  -23.4430  -28.6260   54.3540 C   0  0  0  0  0  0  0  0  0  0  0  0
  -20.9140  -26.3480   55.2860 H   0  0  0  0  0  0  0  0  0  0  0  0
  -25.2360  -26.0490   55.9660 H   0  0  0  0  0  0  0  0  0  0  0  0
  -23.5800  -29.5330   53.8790 H   0  0  0  0  0  0  0  0  0  0  0  0
  -22.8440  -24.6760   56.4230 C   0  0  0  0  0  0  0  0  0  0  0  0
  -22.6450  -23.3600   57.1130 F   0  0  0  0  0  0  0  0  0  0  0  0
  -21.3600  -24.8900   56.4020 F   0  0  0  0  0  0  0  0  0  0  0  0
  -24.3290  -24.4620   56.4440 F   0  0  0  0  0  0  0  0  0  0  0  0
  -26.0040  -28.4500   54.7570 C   0  0  0  0  0  0  0  0  0  0  0  0
  -27.3830  -29.0190   54.6130 F   0  0  0  0  0  0  0  0  0  0  0  0
  -26.4110  -27.7850   56.0380 F   0  0  0  0  0  0  0  0  0  0  0  0
  -25.5960  -29.1140   53.4750 F   0  0  0  0  0  0  0  0  0  0  0  0
  1 19  1  0
  2  1  1  0
  2  7  1  0
  3  2  2  0
  4  5  2  0
  4  3  1  0
  5  6  1  0
  6 10  1  0
  6  1  2  0
  8  3  1  0
  9  5  1  0
 11 22  1  0
 11 12  1  0
 13 12  2  0
 13 14  1  0
 14 15  1  0
 15 16  2  0
 16 17  1  0
 18 17  1  0
 18 24  1  0
 19 18  2  0
 20 12  1  0
 20 19  1  0
 20 16  1  0
 21 11  1  0
 23 14  1  0
 25 26  1  0
 25  4  1  0
 26 27  2  0
 28 31  1  0
 28 26  1  0
 29 25  1  0
 30 28  1  0
 31 32  1  0
 32 37  1  0
 32 33  2  0
 33 40  1  0
 34 33  1  0
 34 38  1  0
 35 34  2  0
 36 31  2  0
 36 35  1  0
 39 36  1  0
 40 43  1  0
 40 41  1  0
 42 40  1  0
 44 35  1  0
 44 46  1  0
 45 44  1  0
 47 44  1  0
M  END
>  <minimizedAffinity>  (120) 
-10.2435627

$$$$

     RDKit          3D

 42 43  0  0  0  0  0  0  0  0999 V2000
  -20.1130  -28.4410   55.7600 C   0  0  0  0  0  0  0  0  0  0  0  0
  -19.3140  -28.6500   54.5080 C   0  0  0  0  0  0  0  0  0  0  0  0
  -19.9800  -29.0700   56.5670 H   0  0  0  0  0  0  0  0  0  0  0  0
  -19.4470  -28.0200   53.7000 H   0  0  0  0  0  0  0  0  0  0  0  0
  -18.3230  -29.7730   54.4280 C   0  0  0  0  0  0  0  0  0  0  0  0
  -18.5140  -30.8730   53.4270 C   0  0  0  0  0  0  0  0  0  0  0  0
  -17.5230  -31.9960   53.3480 N   0  0  0  0  0  0  0  0  0  0  0  0
  -16.3400  -32.0180   54.2700 C   0  0  0  0  0  0  0  0  0  0  0  0
  -16.1490  -30.9180   55.2720 C   0  0  0  0  0  0  0  0  0  0  0  0
  -17.1400  -29.7950   55.3510 C   0  0  0  0  0  0  0  0  0  0  0  0
  -19.3280  -30.8580   52.7930 H   0  0  0  0  0  0  0  0  0  0  0  0
  -15.6580  -32.7910   54.2160 H   0  0  0  0  0  0  0  0  0  0  0  0
  -17.0080  -29.0380   56.0390 H   0  0  0  0  0  0  0  0  0  0  0  0
  -14.9660  -30.9400   56.1940 C   0  0  0  0  0  0  0  0  0  0  0  0
  -13.6790  -30.2890   55.7790 O   0  0  0  0  0  0  0  0  0  0  0  0
  -15.0690  -31.6130   57.5300 N   0  0  0  0  0  0  0  0  0  0  0  0
  -13.8860  -31.6360   58.4520 C   0  0  0  0  0  0  0  0  0  0  0  0
  -13.9600  -32.1160   59.4060 H   0  0  0  0  0  0  0  0  0  0  0  0
  -12.9690  -31.1710   58.1570 H   0  0  0  0  0  0  0  0  0  0  0  0
  -13.0420  -31.6520   59.1100 H   0  0  0  0  0  0  0  0  0  0  0  0
  -16.3550  -32.2640   57.9440 C   0  0  0  0  0  0  0  0  0  0  0  0
  -17.1990  -32.2490   57.2870 H   0  0  0  0  0  0  0  0  0  0  0  0
  -16.4290  -32.7450   58.8980 H   0  0  0  0  0  0  0  0  0  0  0  0
  -17.2730  -32.7290   58.2400 H   0  0  0  0  0  0  0  0  0  0  0  0
  -20.6680  -25.9650   56.3160 C   0  0  0  0  0  0  0  0  0  0  0  0
  -21.6590  -24.8420   56.3950 C   0  0  0  0  0  0  0  0  0  0  0  0
  -23.0870  -25.0730   55.9970 C   0  0  0  0  0  0  0  0  0  0  0  0
  -23.5230  -26.4260   55.5200 C   0  0  0  0  0  0  0  0  0  0  0  0
  -22.5320  -27.5490   55.4410 C   0  0  0  0  0  0  0  0  0  0  0  0
  -21.1040  -27.3180   55.8390 C   0  0  0  0  0  0  0  0  0  0  0  0
  -21.3590  -23.9110   56.7240 H   0  0  0  0  0  0  0  0  0  0  0  0
  -24.5050  -26.5850   55.2460 H   0  0  0  0  0  0  0  0  0  0  0  0
  -19.2400  -25.7340   56.7150 C   0  0  0  0  0  0  0  0  0  0  0  0
  -18.9290  -24.7680   57.0550 H   0  0  0  0  0  0  0  0  0  0  0  0
  -18.5330  -26.5350   56.6580 H   0  0  0  0  0  0  0  0  0  0  0  0
  -18.2220  -25.5700   56.9990 H   0  0  0  0  0  0  0  0  0  0  0  0
  -22.9680  -28.9020   54.9630 C   0  0  0  0  0  0  0  0  0  0  0  0
  -22.2610  -29.7040   54.9070 H   0  0  0  0  0  0  0  0  0  0  0  0
  -23.9860  -29.0670   54.6790 H   0  0  0  0  0  0  0  0  0  0  0  0
  -23.2790  -29.8680   54.6230 H   0  0  0  0  0  0  0  0  0  0  0  0
  -24.0780  -23.9500   56.0760 O   0  0  0  0  0  0  0  0  0  0  0  0
  -24.9700  -24.0940   55.8270 H   0  0  0  0  0  0  0  0  0  0  0  0
  1 30  1  0
  1  3  1  0
  2  1  2  0
  4  2  1  0
  5  2  1  0
  5 10  1  0
  6  5  2  0
  7  6  1  0
  7  8  2  0
  8  9  1  0
  9 10  2  0
  9 14  1  0
 10 13  1  0
 11  6  1  0
 12  8  1  0
 14 16  1  0
 15 14  2  0
 16 21  1  0
 16 17  1  0
 17 20  1  0
 17 18  1  0
 19 17  1  0
 21 24  1  0
 21 23  1  0
 22 21  1  0
 25 26  1  0
 25 33  1  0
 26 31  1  0
 27 41  1  0
 27 26  2  0
 28 27  1  0
 29 28  2  0
 29 30  1  0
 30 25  2  0
 32 28  1  0
 33 36  1  0
 33 34  1  0
 35 33  1  0
 37 29  1  0
 38 37  1  0
 39 37  1  0
 40 37  1  0
 42 41  1  0
M  END
>  <minimizedAffinity>  (121) 
-8.24549866

$$$$

     RDKit          3D

 39 41  0  0  0  0  0  0  0  0999 V2000
  -20.3620  -26.5540   55.1760 C   0  0  0  0  0  0  0  0  0  0  0  0
  -19.6250  -25.3990   55.7860 C   0  0  0  0  0  0  0  0  0  0  0  0
  -20.3810  -24.3270   56.5140 C   0  0  0  0  0  0  0  0  0  0  0  0
  -21.8740  -24.4110   56.6320 N   0  0  0  0  0  0  0  0  0  0  0  0
  -22.6110  -25.5660   56.0220 C   0  0  0  0  0  0  0  0  0  0  0  0
  -24.1040  -25.6500   56.1400 C   0  0  0  0  0  0  0  0  0  0  0  0
  -24.8410  -26.8050   55.5300 C   0  0  0  0  0  0  0  0  0  0  0  0
  -24.0850  -27.8770   54.8020 C   0  0  0  0  0  0  0  0  0  0  0  0
  -22.5920  -27.7930   54.6840 C   0  0  0  0  0  0  0  0  0  0  0  0
  -21.8550  -26.6380   55.2940 C   0  0  0  0  0  0  0  0  0  0  0  0
  -18.5980  -25.3420   55.7040 H   0  0  0  0  0  0  0  0  0  0  0  0
  -19.8740  -23.5320   56.9340 H   0  0  0  0  0  0  0  0  0  0  0  0
  -24.6240  -24.9120   56.6410 H   0  0  0  0  0  0  0  0  0  0  0  0
  -25.8690  -26.8630   55.6120 H   0  0  0  0  0  0  0  0  0  0  0  0
  -22.0720  -28.5310   54.1830 H   0  0  0  0  0  0  0  0  0  0  0  0
  -24.8230  -29.0320   54.1920 S   0  0  2  0  0  0  0  0  0  0  0  0
  -24.1810  -28.7420   52.8680 O   0  0  0  0  0  0  0  0  0  0  0  0
  -25.4640  -29.3220   55.5170 O   0  0  0  0  0  0  0  0  0  0  0  0
  -25.5600  -30.1870   53.5820 C   0  0  0  0  0  0  0  0  0  0  0  0
  -26.2190  -30.7780   54.1830 H   0  0  0  0  0  0  0  0  0  0  0  0
  -25.4260  -30.4200   52.5460 H   0  0  0  0  0  0  0  0  0  0  0  0
  -26.0860  -31.0110   53.1470 H   0  0  0  0  0  0  0  0  0  0  0  0
  -19.6060  -27.6260   54.4480 N   0  0  0  0  0  0  0  0  0  0  0  0
  -20.0090  -28.0680   53.6660 H   0  0  0  0  0  0  0  0  0  0  0  0
  -17.9420  -29.4580   55.2370 C   0  0  0  0  0  0  0  0  0  0  0  0
  -16.5720  -29.8560   55.7000 C   0  0  0  0  0  0  0  0  0  0  0  0
  -15.4960  -28.8200   55.8370 C   0  0  0  0  0  0  0  0  0  0  0  0
  -15.7900  -27.3860   55.5100 C   0  0  0  0  0  0  0  0  0  0  0  0
  -17.1600  -26.9880   55.0470 C   0  0  0  0  0  0  0  0  0  0  0  0
  -18.2360  -28.0240   54.9110 C   0  0  0  0  0  0  0  0  0  0  0  0
  -16.3700  -30.8430   55.9250 H   0  0  0  0  0  0  0  0  0  0  0  0
  -14.5530  -29.0930   56.1550 H   0  0  0  0  0  0  0  0  0  0  0  0
  -17.3630  -26.0010   54.8220 H   0  0  0  0  0  0  0  0  0  0  0  0
  -19.0180  -30.4940   55.1010 C   0  0  0  0  0  0  0  0  0  0  0  0
  -18.8080  -31.5170   55.3340 H   0  0  0  0  0  0  0  0  0  0  0  0
  -19.9950  -30.2100   54.7710 H   0  0  0  0  0  0  0  0  0  0  0  0
  -19.7860  -31.2340   55.0040 H   0  0  0  0  0  0  0  0  0  0  0  0
  -14.7140  -26.3490   55.6460 O   0  0  0  0  0  0  0  0  0  0  0  0
  -14.8980  -25.4530   55.4420 H   0  0  0  0  0  0  0  0  0  0  0  0
  1 10  2  0
  1  2  1  0
  2  3  2  0
  3  4  1  0
  3 12  1  0
  5  6  1  0
  5  4  2  0
  6 13  1  0
  7 14  1  0
  7  6  2  0
  8  7  1  0
  9  8  2  0
  9 10  1  0
 10  5  1  0
 11  2  1  0
 15  9  1  0
 16  8  1  0
 16 18  2  0
 17 16  2  0
 19 20  1  0
 19 16  1  0
 21 19  1  0
 22 19  1  0
 23 30  1  0
 23  1  1  0
 24 23  1  0
 25 26  1  0
 26 27  2  0
 26 31  1  0
 27 32  1  0
 28 38  1  0
 28 27  1  0
 29 28  2  0
 30 29  1  0
 30 25  2  0
 33 29  1  0
 34 25  1  0
 34 35  1  0
 36 34  1  0
 37 34  1  0
 39 38  1  0
M  END
>  <minimizedAffinity>  (122) 
-8.3757925

$$$$

     RDKit          3D

 37 40  0  0  0  0  0  0  0  0999 V2000
  -19.8740  -26.4430   55.8730 C   0  0  0  0  0  0  0  0  0  0  0  0
  -20.0590  -25.0080   56.2670 C   0  0  0  0  0  0  0  0  0  0  0  0
  -21.4400  -24.4340   56.3840 C   0  0  0  0  0  0  0  0  0  0  0  0
  -22.6360  -25.2960   56.1070 C   0  0  0  0  0  0  0  0  0  0  0  0
  -22.4510  -26.7320   55.7130 C   0  0  0  0  0  0  0  0  0  0  0  0
  -21.0700  -27.3050   55.5960 C   0  0  0  0  0  0  0  0  0  0  0  0
  -23.8090  -27.3330   55.5030 C   0  0  0  0  0  0  0  0  0  0  0  0
  -24.0930  -28.7500   55.1000 C   0  0  0  0  0  0  0  0  0  0  0  0
  -24.8340  -26.2700   55.7680 C   0  0  0  0  0  0  0  0  0  0  0  0
  -26.3220  -26.4360   55.6750 O   0  0  0  0  0  0  0  0  0  0  0  0
  -24.1090  -25.0110   56.1410 N   0  0  0  0  0  0  0  0  0  0  0  0
  -19.2370  -24.4150   56.4570 H   0  0  0  0  0  0  0  0  0  0  0  0
  -21.5680  -23.4460   56.6550 H   0  0  0  0  0  0  0  0  0  0  0  0
  -20.9430  -28.2930   55.3250 H   0  0  0  0  0  0  0  0  0  0  0  0
  -23.3130  -29.4070   54.9410 H   0  0  0  0  0  0  0  0  0  0  0  0
  -24.5260  -24.1480   56.3680 H   0  0  0  0  0  0  0  0  0  0  0  0
  -25.5100  -29.2110   54.9280 C   0  0  0  0  0  0  0  0  0  0  0  0
  -26.1640  -29.1390   53.5810 C   0  0  0  0  0  0  0  0  0  0  0  0
  -27.5810  -29.6000   53.4100 C   0  0  0  0  0  0  0  0  0  0  0  0
  -28.2360  -29.5270   52.0610 Br  0  0  0  0  0  0  0  0  0  0  0  0
  -28.3440  -30.1330   54.5850 C   0  0  0  0  0  0  0  0  0  0  0  0
  -27.6900  -30.2060   55.9330 C   0  0  0  0  0  0  0  0  0  0  0  0
  -28.4530  -30.7390   57.1100 Br  0  0  0  0  0  0  0  0  0  0  0  0
  -26.2720  -29.7450   56.1050 C   0  0  0  0  0  0  0  0  0  0  0  0
  -25.6390  -28.7720   52.7720 H   0  0  0  0  0  0  0  0  0  0  0  0
  -25.8230  -29.7950   57.0320 H   0  0  0  0  0  0  0  0  0  0  0  0
  -29.7610  -30.5940   54.4140 O   0  0  0  0  0  0  0  0  0  0  0  0
  -30.1700  -30.5490   53.5720 H   0  0  0  0  0  0  0  0  0  0  0  0
  -15.8870  -29.8200   55.1140 N   0  0  0  0  0  0  0  0  0  0  0  0
  -16.6600  -28.5690   55.4070 C   0  0  0  0  0  0  0  0  0  0  0  0
  -18.1540  -28.4380   55.4140 N   0  0  0  0  0  0  0  0  0  0  0  0
  -18.4930  -27.0170   55.7560 C   0  0  0  0  0  0  0  0  0  0  0  0
  -17.2090  -26.2700   55.9600 C   0  0  0  0  0  0  0  0  0  0  0  0
  -16.0760  -27.2300   55.7450 S   0  0  0  0  0  0  0  0  0  0  0  0
  -14.9030  -29.8070   55.1340 H   0  0  0  0  0  0  0  0  0  0  0  0
  -16.3630  -30.6550   54.9020 H   0  0  0  0  0  0  0  0  0  0  0  0
  -17.1190  -25.2710   56.2060 H   0  0  0  0  0  0  0  0  0  0  0  0
  1  2  1  0
  2  3  2  0
  2 12  1  0
  3 13  1  0
  4 11  1  0
  4  3  1  0
  5  4  2  0
  6  5  1  0
  6  1  2  0
  7  5  1  0
  7  9  1  0
  8  7  2  0
  9 11  1  0
 10  9  2  0
 11 16  1  0
 14  6  1  0
 15  8  1  0
 17  8  1  0
 17 24  1  0
 18 17  2  0
 19 18  1  0
 19 21  2  0
 20 19  1  0
 21 22  1  0
 22 24  2  0
 22 23  1  0
 24 26  1  0
 25 18  1  0
 27 21  1  0
 28 27  1  0
 29 35  1  0
 29 30  1  0
 30 31  2  0
 30 34  1  0
 31 32  1  0
 32  1  1  0
 32 33  2  0
 33 37  1  0
 34 33  1  0
 36 29  1  0
M  END
>  <minimizedAffinity>  (123) 
-9.23626423

$$$$

     RDKit          3D

 54 55  0  0  0  0  0  0  0  0999 V2000
  -23.9350  -26.8410   55.6990 C   0  0  0  0  0  0  0  0  0  0  0  0
  -24.0050  -25.4420   56.2370 C   0  0  0  0  0  0  0  0  0  0  0  0
  -22.7470  -24.6470   56.4260 C   0  0  0  0  0  0  0  0  0  0  0  0
  -21.4190  -25.2510   56.0780 C   0  0  0  0  0  0  0  0  0  0  0  0
  -21.3480  -26.6500   55.5400 C   0  0  0  0  0  0  0  0  0  0  0  0
  -22.6060  -27.4450   55.3510 C   0  0  0  0  0  0  0  0  0  0  0  0
  -19.9060  -26.9770   55.2870 C   0  0  0  0  0  0  0  0  0  0  0  0
  -19.3780  -28.2730   54.7470 N   0  0  0  0  0  0  0  0  0  0  0  0
  -19.0860  -25.7810   55.6670 C   0  0  0  0  0  0  0  0  0  0  0  0
  -17.5930  -25.6700   55.5760 O   0  0  0  0  0  0  0  0  0  0  0  0
  -20.0210  -24.7140   56.1560 N   0  0  0  0  0  0  0  0  0  0  0  0
  -24.9190  -25.0270   56.4760 H   0  0  0  0  0  0  0  0  0  0  0  0
  -22.7960  -23.6850   56.7960 H   0  0  0  0  0  0  0  0  0  0  0  0
  -22.5580  -28.4070   54.9810 H   0  0  0  0  0  0  0  0  0  0  0  0
  -19.7620  -23.8180   56.4730 H   0  0  0  0  0  0  0  0  0  0  0  0
  -25.1290  -29.1320   55.4300 N   0  0  0  0  0  2  0  0  0  0  0  0
  -25.1920  -27.6360   55.5100 C   0  0  0  0  0  0  0  0  0  0  0  0
  -26.5140  -26.9350   55.4010 O   0  0  0  0  0  0  0  0  0  0  0  0
  -24.2620  -29.5930   55.5010 H   0  0  0  0  0  0  0  0  0  0  0  0
  -26.3870  -29.9280   55.2400 C   0  0  0  0  0  3  0  0  0  0  0  0
  -27.1520  -29.5700   54.5830 H   0  0  0  0  0  0  0  0  0  0  0  0
  -26.2550  -29.0030   54.7180 H   0  0  0  0  0  0  0  0  0  0  0  0
  -26.5720  -31.2240   55.9720 C   0  0  0  0  0  0  0  0  0  0  0  0
  -27.0450  -30.4730   57.1820 C   0  0  0  0  0  0  0  0  0  0  0  0
  -27.0990  -29.4040   57.1610 H   0  0  0  0  0  0  0  0  0  0  0  0
  -27.3280  -31.0060   58.0650 H   0  0  0  0  0  0  0  0  0  0  0  0
  -27.3820  -29.9370   58.0450 H   0  0  0  0  0  0  0  0  0  0  0  0
  -26.0990  -31.9740   54.7630 C   0  0  0  0  0  0  0  0  0  0  0  0
  -26.0450  -33.0430   54.7830 H   0  0  0  0  0  0  0  0  0  0  0  0
  -25.8160  -31.4410   53.8790 H   0  0  0  0  0  0  0  0  0  0  0  0
  -25.7620  -32.5100   53.9000 H   0  0  0  0  0  0  0  0  0  0  0  0
  -26.7570  -32.5200   56.7040 C   0  0  0  0  0  0  0  0  0  0  0  0
  -27.7010  -33.0220   56.6720 H   0  0  0  0  0  0  0  0  0  0  0  0
  -26.8890  -33.4450   57.2270 H   0  0  0  0  0  0  0  0  0  0  0  0
  -25.6190  -33.1110   57.4820 O   0  0  0  0  0  0  0  0  0  0  0  0
  -24.7630  -32.6550   57.5120 H   0  0  0  0  0  0  0  0  0  0  0  0
  -17.9030  -28.4550   54.5460 N   0  0  0  0  0  0  0  0  0  0  0  0
  -17.4160  -27.8700   53.9210 H   0  0  0  0  0  0  0  0  0  0  0  0
  -17.1710  -29.5290   55.2950 C   0  0  0  0  0  0  0  0  0  0  0  0
  -17.8850  -30.7880   55.6890 C   0  0  0  0  0  0  0  0  0  0  0  0
  -17.1530  -31.8620   56.4390 C   0  0  0  0  0  0  0  0  0  0  0  0
  -15.7070  -31.6770   56.7930 C   0  0  0  0  0  0  0  0  0  0  0  0
  -14.9930  -30.4190   56.3980 C   0  0  0  0  0  0  0  0  0  0  0  0
  -15.7250  -29.3450   55.6490 C   0  0  0  0  0  0  0  0  0  0  0  0
  -18.8800  -30.9160   55.4460 H   0  0  0  0  0  0  0  0  0  0  0  0
  -17.6440  -32.7270   56.7100 H   0  0  0  0  0  0  0  0  0  0  0  0
  -13.9990  -30.2910   56.6410 H   0  0  0  0  0  0  0  0  0  0  0  0
  -15.2340  -28.4780   55.3770 H   0  0  0  0  0  0  0  0  0  0  0  0
  -14.9750  -32.7510   57.5420 S   0  0  2  0  0  0  0  0  0  0  0  0
  -16.2840  -33.3610   57.9460 O   0  0  0  0  0  0  0  0  0  0  0  0
  -13.6660  -32.1400   57.1380 O   0  0  0  0  0  0  0  0  0  0  0  0
  -14.2430  -33.8250   58.2910 N   0  0  0  0  0  0  0  0  0  0  0  0
  -14.7650  -34.5490   58.7840 H   0  0  0  0  0  0  0  0  0  0  0  0
  -13.2230  -33.8300   58.3080 H   0  0  0  0  0  0  0  0  0  0  0  0
  1  2  1  0
  2  3  2  0
  2 12  1  0
  3 13  1  0
  4 11  1  0
  4  3  1  0
  5  4  2  0
  6  5  1  0
  6  1  2  0
  7  5  1  0
  7  9  1  0
  8  7  2  0
  9 11  1  0
 10  9  2  0
 11 15  1  0
 14  6  1  0
 16 19  1  0
 16 17  1  0
 17  1  1  0
 18 17  2  0
 20 23  1  0
 21 20  1  0
 22 20  1  0
 23 32  1  0
 23 24  1  0
 24 27  1  0
 24 26  1  0
 25 24  1  0
 28 29  1  0
 28 23  1  0
 30 28  1  0
 31 28  1  0
 32 34  1  0
 32 35  1  0
 33 32  1  0
 35 36  1  0
 37  8  1  0
 37 39  1  0
 38 37  1  0
 39 44  2  0
 39 40  1  0
 40 41  2  0
 41 46  1  0
 41 42  1  0
 42 49  1  0
 43 47  1  0
 43 42  2  0
 44 43  1  0
 45 40  1  0
 48 44  1  0
 49 50  2  0
 49 52  1  0
 51 49  2  0
 52 54  1  0
 52 53  1  0
M  END
>  <minimizedAffinity>  (124) 
-9.73882961

$$$$

     RDKit          3D

 56 52  0  0  0  0  0  0  0  0999 V2000
  -24.5700  -27.0450   55.5260 C   0  0  0  0  0  0  0  0  0  0  0  0
  -25.9950  -26.8440   55.9510 N   0  0  0  0  0  0  0  0  0  0  0  0
  -26.7940  -28.0150   55.4600 C   0  0  0  0  0  0  0  0  0  0  0  0
  -25.8640  -28.9390   54.7320 N   0  0  0  0  0  2  0  0  0  0  0  0
  -24.4890  -28.3400   54.7730 C   0  0  0  0  0  0  0  0  0  0  0  0
  -27.8070  -28.1580   55.5990 H   0  0  0  0  0  0  0  0  0  0  0  0
  -26.2420  -30.2350   54.0790 C   0  0  0  0  0  1  0  0  0  0  0  0
  -25.7230  -31.5310   54.6270 C   0  0  0  0  0  2  0  0  0  0  0  0
  -26.1010  -32.8270   53.9730 C   0  0  0  0  0  2  0  0  0  0  0  0
  -26.9970  -32.8270   52.7720 N   0  0  0  0  0  1  0  0  0  0  0  0
  -27.5160  -31.5310   52.2230 C   0  0  0  0  0  2  0  0  0  0  0  0
  -27.1380  -30.2350   52.8770 C   0  0  0  0  0  2  0  0  0  0  0  0
  -26.5110  -31.1600   53.6130 H   0  0  0  0  0  0  0  0  0  0  0  0
  -25.0830  -31.5310   55.4850 H   0  0  0  0  0  0  0  0  0  0  0  0
  -25.3520  -32.4560   55.0190 H   0  0  0  0  0  0  0  0  0  0  0  0
  -25.7300  -33.7520   54.3650 H   0  0  0  0  0  0  0  0  0  0  0  0
  -26.3690  -33.7520   53.5080 H   0  0  0  0  0  0  0  0  0  0  0  0
  -27.2540  -33.7080   52.3260 H   0  0  0  0  0  0  0  0  0  0  0  0
  -28.1560  -31.5310   51.3660 H   0  0  0  0  0  0  0  0  0  0  0  0
  -27.8860  -30.6060   51.8320 H   0  0  0  0  0  0  0  0  0  0  0  0
  -27.5090  -29.3100   52.4860 H   0  0  0  0  0  0  0  0  0  0  0  0
  -26.8690  -29.3100   53.3440 H   0  0  0  0  0  0  0  0  0  0  0  0
  -19.9990  -23.3230   56.6440 F   0  0  0  0  0  0  0  0  0  0  0  0
  -21.1420  -24.2530   56.3650 C   0  0  0  0  0  0  0  0  0  0  0  0
  -22.5280  -23.7080   56.1980 C   0  0  0  0  0  0  0  0  0  0  0  0
  -23.6720  -24.6390   55.9190 C   0  0  0  0  0  0  0  0  0  0  0  0
  -23.4280  -26.1150   55.8060 C   0  0  0  0  0  0  0  0  0  0  0  0
  -22.0400  -26.6590   55.9720 C   0  0  0  0  0  0  0  0  0  0  0  0
  -20.8970  -25.7290   56.2510 C   0  0  0  0  0  0  0  0  0  0  0  0
  -22.6970  -22.6940   56.2760 H   0  0  0  0  0  0  0  0  0  0  0  0
  -24.6270  -24.2630   55.8040 H   0  0  0  0  0  0  0  0  0  0  0  0
  -21.8720  -27.6750   55.8940 H   0  0  0  0  0  0  0  0  0  0  0  0
  -19.9420  -26.1050   56.3660 H   0  0  0  0  0  0  0  0  0  0  0  0
  -23.2510  -28.9310   54.1670 C   0  0  0  0  0  0  0  0  0  0  0  0
  -23.1090  -29.0080   52.6760 C   0  0  0  0  0  0  0  0  0  0  0  0
  -21.8700  -29.5990   52.0700 C   0  0  0  0  0  3  0  0  0  0  0  0
  -20.7750  -30.1140   52.9560 N   0  0  0  0  0  0  0  0  0  0  0  0
  -20.9180  -30.0380   54.4470 C   0  0  0  0  0  0  0  0  0  0  0  0
  -22.1560  -29.4470   55.0520 N   0  0  0  0  0  0  0  0  0  0  0  0
  -23.8630  -28.6530   52.0670 H   0  0  0  0  0  0  0  0  0  0  0  0
  -21.7730  -29.6520   51.0440 H   0  0  0  0  0  0  0  0  0  0  0  0
  -19.8220  -30.5540   55.3320 O   0  0  0  0  0  0  0  0  0  0  0  0
  -18.5330  -29.7940   55.4500 C   0  0  0  0  0  0  0  0  0  0  0  0
  -17.2280  -30.5330   55.4860 C   0  0  0  0  0  0  0  0  0  0  0  0
  -15.9400  -29.7730   55.6030 C   0  0  0  0  0  0  0  0  0  0  0  0
  -15.9570  -28.2760   55.6850 C   0  0  0  0  0  3  0  0  0  0  0  0
  -17.2630  -27.5370   55.6490 C   0  0  0  0  0  0  0  0  0  0  0  0
  -18.5500  -28.2970   55.5310 C   0  0  0  0  0  0  0  0  0  0  0  0
  -16.9680  -26.0700   55.7470 O   0  0  0  0  0  0  0  0  0  0  0  0
  -15.4800  -25.9010   55.8440 C   0  0  0  0  0  3  0  0  0  0  0  0
  -14.8560  -27.2640   55.8050 O   0  0  0  0  0 15  0  0  0  0  0  0
  -17.2160  -31.5630   55.4300 H   0  0  0  0  0  0  0  0  0  0  0  0
  -15.0420  -30.2810   55.6280 H   0  0  0  0  0  0  0  0  0  0  0  0
  -19.4480  -27.7890   55.5060 H   0  0  0  0  0  0  0  0  0  0  0  0
  -14.9570  -24.9710   55.9260 H   0  0  0  0  0  0  0  0  0  0  0  0
  -14.4140  -25.9480   55.9040 H   0  0  0  0  0  0  0  0  0  0  0  0
  1 27  1  0
  1  2  1  0
  3  6  1  0
  3  2  2  0
  4  5  1  0
  4  3  1  0
  5  1  2  0
  8 15  1  0
  8 14  1  0
  9 16  1  0
 12 22  1  0
 13  7  1  0
 17  9  1  0
 18 10  1  0
 19 11  1  0
 20 11  1  0
 21 12  1  0
 24 23  1  0
 25 30  1  0
 25 24  2  0
 26 25  1  0
 27 26  2  0
 27 28  1  0
 28 29  2  0
 29 24  1  0
 29 33  1  0
 31 26  1  0
 32 28  1  0
 34  5  1  0
 34 39  1  0
 35 34  2  0
 36 35  1  0
 36 37  1  0
 37 38  2  0
 38 39  2  0
 38 42  1  0
 40 35  1  0
 41 36  1  0
 42 43  1  0
 43 44  2  0
 43 48  1  0
 44 45  1  0
 45 53  1  0
 45 46  2  0
 47 46  1  0
 47 49  1  0
 48 47  2  0
 49 50  1  0
 50 56  1  0
 50 55  1  0
 52 44  1  0
 54 48  1  0
M  END
>  <minimizedAffinity>  (125) 
-9.38365173

$$$$

     RDKit          3D

 64 62  0  0  0  0  0  0  0  0999 V2000
  -20.7090  -27.4460   55.5390 C   0  0  0  0  0  0  0  0  0  0  0  0
  -19.7150  -26.3750   55.8780 C   0  0  0  0  0  0  0  0  0  0  0  0
  -18.3400  -26.9560   55.7270 C   0  0  0  0  0  0  0  0  0  0  0  0
  -16.9740  -26.3680   55.9260 N   0  0  0  0  0  0  0  0  0  0  0  0
  -15.7540  -27.2100   55.6950 C   0  0  0  0  0  0  0  0  0  0  0  0
  -15.9000  -28.6390   55.2630 N   0  0  0  0  0  0  0  0  0  0  0  0
  -17.2650  -29.2270   55.0630 C   0  0  0  0  0  0  0  0  0  0  0  0
  -18.4850  -28.3860   55.2950 C   0  0  0  0  0  0  0  0  0  0  0  0
  -19.9500  -28.6880   55.1790 S   0  0  0  0  0  0  0  0  0  0  0  0
  -19.9370  -25.4090   56.1640 H   0  0  0  0  0  0  0  0  0  0  0  0
  -14.8140  -26.8050   55.8320 H   0  0  0  0  0  0  0  0  0  0  0  0
  -23.6950  -27.1530   55.5760 C   0  0  0  0  0 15  0  0  0  0  0  0
  -22.2020  -27.3000   55.5580 C   0  0  0  0  0  1  0  0  0  0  0  0
  -27.5590  -27.5190   55.5080 C   0  0  0  0  0  2  0  0  0  0  0  0
  -27.4110  -26.0440   55.7380 C   0  0  0  0  0  2  0  0  0  0  0  0
  -25.9460  -25.7270   55.7920 N   0  0  0  0  0  1  0  0  0  0  0  0
  -25.1870  -27.0070   55.5940 C   0  0  0  0  0  2  0  0  0  0  0  0
  -26.1840  -28.1150   55.4190 C   0  0  0  0  0  3  0  0  0  0  0  0
  -28.4590  -26.9480   55.5940 H   0  0  0  0  0  0  0  0  0  0  0  0
  -28.2100  -25.3420   55.8450 H   0  0  0  0  0  0  0  0  0  0  0  0
  -27.1400  -25.0210   55.8990 H   0  0  0  0  0  0  0  0  0  0  0  0
  -25.5370  -24.8040   55.9370 H   0  0  0  0  0  0  0  0  0  0  0  0
  -24.6110  -26.1170   55.7350 H   0  0  0  0  0  0  0  0  0  0  0  0
  -25.9550  -29.1470   55.2580 H   0  0  0  0  0  0  0  0  0  0  0  0
  -27.0120  -28.7840   55.3120 H   0  0  0  0  0  0  0  0  0  0  0  0
  -28.8530  -28.2680   55.3870 O   0  0  0  0  0  0  0  0  0  0  0  0
  -29.4600  -30.1330   57.0910 N   0  0  0  0  0  0  0  0  0  0  0  0
  -29.5800  -28.7130   56.6210 C   0  0  0  0  0  0  0  0  0  0  0  0
  -30.4260  -27.7390   57.3850 O   0  0  0  0  0  0  0  0  0  0  0  0
  -30.1880  -30.5780   58.3250 C   0  0  0  0  0  0  0  0  0  0  0  0
  -30.7910  -29.8830   58.8700 H   0  0  0  0  0  0  0  0  0  0  0  0
  -30.1020  -31.5900   58.6600 H   0  0  0  0  0  0  0  0  0  0  0  0
  -30.7060  -30.8950   59.2050 H   0  0  0  0  0  0  0  0  0  0  0  0
  -28.6140  -31.1070   56.3270 C   0  0  0  0  0  0  0  0  0  0  0  0
  -28.5290  -32.1200   56.6620 H   0  0  0  0  0  0  0  0  0  0  0  0
  -28.0950  -30.7900   55.4460 H   0  0  0  0  0  0  0  0  0  0  0  0
  -28.0100  -31.8020   55.7820 H   0  0  0  0  0  0  0  0  0  0  0  0
  -17.4100  -30.6560   54.6320 N   0  0  0  0  0  0  0  0  0  0  0  0
  -18.0960  -30.9030   53.9690 H   0  0  0  0  0  0  0  0  0  0  0  0
  -16.5110  -31.7090   55.2080 C   0  0  0  0  0  0  0  0  0  0  0  0
  -16.6850  -32.1450   56.6330 C   0  0  0  0  0  0  0  0  0  0  0  0
  -15.7860  -33.1980   57.2100 C   0  0  0  0  0  0  0  0  0  0  0  0
  -14.7130  -33.8150   56.3620 C   0  0  0  0  0  0  0  0  0  0  0  0
  -14.5390  -33.3790   54.9380 C   0  0  0  0  0  0  0  0  0  0  0  0
  -13.4670  -33.9960   54.0900 Cl  0  0  0  0  0  0  0  0  0  0  0  0
  -15.4390  -32.3260   54.3610 C   0  0  0  0  0  0  0  0  0  0  0  0
  -17.4230  -31.7200   57.2160 H   0  0  0  0  0  0  0  0  0  0  0  0
  -15.9050  -33.4980   58.1910 H   0  0  0  0  0  0  0  0  0  0  0  0
  -15.3190  -32.0260   53.3800 H   0  0  0  0  0  0  0  0  0  0  0  0
  -13.8140  -34.8680   56.9390 O   0  0  0  0  0  0  0  0  0  0  0  0
  -13.0750  -34.6040   58.2180 C   0  0  0  0  0  0  0  0  0  0  0  0
  -13.2380  -35.2320   59.0690 H   0  0  0  0  0  0  0  0  0  0  0  0
  -12.5470  -34.4160   59.1300 H   0  0  0  0  0  0  0  0  0  0  0  0
  -12.1070  -33.4610   58.3030 C   0  0  0  0  0  0  0  0  0  0  0  0
  -10.9430  -33.3920   57.3600 C   0  0  0  0  0  0  0  0  0  0  0  0
   -9.9760  -32.2490   57.4450 C   0  0  0  0  0  0  0  0  0  0  0  0
  -10.1730  -31.1750   58.4740 C   0  0  0  0  0  0  0  0  0  0  0  0
  -11.3370  -31.2440   59.4170 C   0  0  0  0  0  0  0  0  0  0  0  0
  -11.5330  -30.1700   60.4460 F   0  0  0  0  0  0  0  0  0  0  0  0
  -12.3040  -32.3870   59.3320 C   0  0  0  0  0  0  0  0  0  0  0  0
  -10.8080  -34.1310   56.6520 H   0  0  0  0  0  0  0  0  0  0  0  0
   -9.1750  -32.2010   56.7960 H   0  0  0  0  0  0  0  0  0  0  0  0
   -9.5070  -30.3880   58.5320 H   0  0  0  0  0  0  0  0  0  0  0  0
  -13.1050  -32.4350   59.9810 H   0  0  0  0  0  0  0  0  0  0  0  0
  1 13  1  0
  1  2  2  0
  2 10  1  0
  3  2  1  0
  3  4  1  0
  5 11  1  0
  5  4  2  0
  6  5  1  0
  7  6  2  0
  7  8  1  0
  8  3  2  0
  9  8  1  0
  9  1  1  0
 14 19  1  0
 15 20  1  0
 15 21  1  0
 16 22  1  0
 17 23  1  0
 18 17  1  0
 24 18  1  0
 25 18  1  0
 26 14  1  0
 26 28  1  0
 27 30  1  0
 28 27  1  0
 28 29  2  0
 30 32  1  0
 30 31  1  0
 30 33  1  0
 34 35  1  0
 34 27  1  0
 36 34  1  0
 37 34  1  0
 38  7  1  0
 38 40  1  0
 39 38  1  0
 40 41  1  0
 41 42  2  0
 41 47  1  0
 42 48  1  0
 43 50  1  0
 43 42  1  0
 44 43  2  0
 45 44  1  0
 46 44  1  0
 46 40  2  0
 49 46  1  0
 50 51  1  0
 51 54  1  0
 51 52  1  0
 51 53  1  0
 54 60  1  0
 55 56  1  0
 55 54  2  0
 56 57  2  0
 57 63  1  0
 57 58  1  0
 58 59  1  0
 60 58  2  0
 60 64  1  0
 61 55  1  0
 62 56  1  0
M  END
>  <minimizedAffinity>  (126) 
-10.442482

$$$$

     RDKit          3D

 65 65  0  0  1  0  0  0  0  0999 V2000
  -18.6240  -29.9030   53.1870 C   0  0  0  0  0  0  0  0  0  0  0  0
  -17.4920  -29.0270   53.6360 C   0  0  0  0  0  3  0  0  0  0  0  0
  -16.6370  -29.4410   54.7970 C   0  0  0  0  0  1  0  0  0  0  0  0
  -16.9150  -30.7310   55.5090 C   0  0  0  0  0  0  0  0  0  0  0  0
  -18.0460  -31.6080   55.0600 C   0  0  0  0  0  0  0  0  0  0  0  0
  -18.9000  -31.1930   53.9000 C   0  0  0  0  0  0  0  0  0  0  0  0
  -15.9090  -30.8770   56.6130 N   0  0  0  0  0  0  0  0  0  0  0  0
  -15.8180  -32.0220   57.5780 C   0  0  0  0  0  0  0  0  0  0  0  0
  -16.7910  -33.1590   57.4850 O   0  0  0  0  0  0  0  0  0  0  0  0
  -15.0110  -29.6750   56.5830 C   0  0  0  0  0  3  0  0  0  0  0  0
  -15.4610  -28.7880   55.4610 C   0  0  0  0  0  2  0  0  0  0  0  0
  -17.3020  -28.1390   53.1460 H   0  0  0  0  0  0  0  0  0  0  0  0
  -18.2370  -32.4960   55.5510 H   0  0  0  0  0  0  0  0  0  0  0  0
  -14.1930  -29.4850   57.2460 H   0  0  0  0  0  0  0  0  0  0  0  0
  -14.4640  -28.7690   56.4310 H   0  0  0  0  0  0  0  0  0  0  0  0
  -15.0200  -27.8540   55.1820 H   0  0  0  0  0  0  0  0  0  0  0  0
  -15.9000  -28.2720   54.6320 H   0  0  0  0  0  0  0  0  0  0  0  0
  -20.0330  -32.0700   53.4510 N   0  0  0  0  0  4  0  0  0  0  0  0
  -21.4480  -31.5870   53.5720 C   0  0  0  0  0  0  0  0  0  0  0  0
  -21.7320  -30.2290   54.1410 N   0  0  0  0  0  0  0  0  0  0  0  0
  -23.1470  -29.7470   54.2620 C   0  0  0  0  0  3  0  0  0  0  0  0
  -24.2780  -30.6230   53.8140 C   0  0  0  0  0  0  0  0  0  0  0  0
  -25.7650  -30.4200   53.8100 C   0  0  0  0  0  0  0  0  0  0  0  0
  -26.3990  -31.6530   53.2380 C   0  0  0  0  0  0  0  0  0  0  0  0
  -25.3060  -32.6180   52.8890 N   0  0  0  0  0  0  0  0  0  0  0  0
  -23.9950  -31.9820   53.2440 C   0  0  0  0  0  0  0  0  0  0  0  0
  -22.5800  -32.4630   53.1240 N   0  0  0  0  0  2  0  0  0  0  0  0
  -19.8470  -32.9610   53.0780 H   0  0  0  0  0  0  0  0  0  0  0  0
  -26.2630  -29.5790   54.1420 H   0  0  0  0  0  0  0  0  0  0  0  0
  -27.4110  -31.8090   53.1080 H   0  0  0  0  0  0  0  0  0  0  0  0
  -25.4270  -33.5120   52.4950 H   0  0  0  0  0  0  0  0  0  0  0  0
  -23.4300  -28.3880   54.8320 N   0  0  0  0  0  0  0  0  0  0  0  0
  -24.7840  -27.7590   54.9790 C   0  0  0  0  0  3  0  0  0  0  0  0
  -24.6000  -26.4030   55.5920 C   0  0  0  0  0  2  0  0  0  0  0  0
  -23.1330  -26.1930   55.8240 C   0  0  0  0  0  3  0  0  0  0  0  0
  -22.3620  -25.0440   56.4020 C   0  0  0  0  0  0  0  0  0  0  0  0
  -20.8680  -25.1220   56.5100 C   0  0  0  0  0  0  0  0  0  0  0  0
  -20.1450  -26.3490   56.0400 C   0  0  0  0  0  0  0  0  0  0  0  0
  -20.9160  -27.4990   55.4620 C   0  0  0  0  0  0  0  0  0  0  0  0
  -22.4100  -27.4210   55.3540 C   0  0  0  0  0  0  0  0  0  0  0  0
  -25.7160  -28.2010   54.6960 H   0  0  0  0  0  0  0  0  0  0  0  0
  -25.6670  -27.1790   55.1490 H   0  0  0  0  0  0  0  0  0  0  0  0
  -25.3780  -25.7060   55.8240 H   0  0  0  0  0  0  0  0  0  0  0  0
  -24.3050  -25.4710   56.0290 H   0  0  0  0  0  0  0  0  0  0  0  0
  -22.8590  -24.1990   56.7250 H   0  0  0  0  0  0  0  0  0  0  0  0
  -20.3370  -24.3310   56.9080 H   0  0  0  0  0  0  0  0  0  0  0  0
  -19.1170  -26.4030   56.1150 H   0  0  0  0  0  0  0  0  0  0  0  0
  -20.4180  -28.3430   55.1390 H   0  0  0  0  0  0  0  0  0  0  0  0
  -14.7540  -32.0290   58.6350 C   0  0  0  0  0  0  0  0  0  0  0  0
  -14.9570  -31.6160   59.6010 H   0  0  0  0  0  0  0  0  0  0  0  0
  -13.9950  -32.0340   59.3890 H   0  0  0  0  0  0  0  0  0  0  0  0
  -13.4050  -32.6150   58.3370 N   0  0  0  0  0  0  0  0  0  0  0  0
  -12.2090  -31.7180   58.2140 C   0  0  0  0  0  0  0  0  0  0  0  0
  -12.3170  -30.6610   58.3380 H   0  0  0  0  0  0  0  0  0  0  0  0
  -11.2470  -32.1360   58.0020 H   0  0  0  0  0  0  0  0  0  0  0  0
  -11.3550  -31.0780   58.1260 H   0  0  0  0  0  0  0  0  0  0  0  0
  -13.2530  -34.0970   58.1630 C   0  0  0  0  0  0  0  0  0  0  0  0
  -12.2910  -34.5140   57.9510 H   0  0  0  0  0  0  0  0  0  0  0  0
  -14.1070  -34.7360   58.2510 H   0  0  0  0  0  0  0  0  0  0  0  0
  -13.1450  -35.1540   58.0390 H   0  0  0  0  0  0  0  0  0  0  0  0
  -19.4790  -29.4890   52.0260 O   0  0  0  0  0  0  0  0  0  0  0  0
  -20.2840  -28.2260   52.1010 C   0  0  0  0  0  0  0  0  0  0  0  0
  -20.8940  -27.9290   51.2730 H   0  0  0  0  0  0  0  0  0  0  0  0
  -20.2480  -27.6190   52.9830 H   0  0  0  0  0  0  0  0  0  0  0  0
  -20.8580  -27.3240   52.1550 H   0  0  0  0  0  0  0  0  0  0  0  0
  1  2  2  0
  1  6  1  0
  3  4  1  0
  4  7  1  0
  5  4  2  0
  5 13  1  0
  6  5  1  0
  7  8  1  0
  8 49  1  0
  9  8  2  0
 10  7  1  0
 10 14  1  0
 12  2  1  0
 15 10  1  0
 16 11  1  0
 17 11  1  0
 18 19  1  0
 18  6  2  0
 19 20  2  0
 20 21  1  0
 21 32  1  0
 22 21  1  0
 23 22  1  0
 23 29  1  0
 24 23  2  0
 25 24  1  0
 25 26  1  0
 26 22  2  0
 27 26  1  0
 27 19  1  0
 28 18  1  0
 30 24  1  0
 31 25  1  0
 32 33  1  0
 32 40  1  0
 33 42  1  0
 34 43  1  0
 34 44  1  0
 35 36  1  0
 36 37  2  0
 36 45  1  0
 37 46  1  0
 38 47  1  0
 38 37  1  0
 39 38  2  0
 40 39  1  0
 40 35  2  0
 41 33  1  0
 48 39  1  0
 49 51  1  0
 49 50  1  0
 52 49  1  0
 53 52  1  0
 53 54  1  0
 55 53  1  0
 56 53  1  0
 57 59  1  0
 57 52  1  0
 58 57  1  0
 60 57  1  0
 61 62  1  0
 61  1  1  0
 62 65  1  0
 62 64  1  0
 63 62  1  0
M  END
>  <minimizedAffinity>  (127) 
-9.66410351

$$$$

     RDKit          3D

 52 55  0  0  1  0  0  0  0  0999 V2000
  -17.9740  -30.0850   55.3630 C   0  0  0  0  0  0  0  0  0  0  0  0
  -19.4200  -29.8100   55.6480 C   0  0  0  0  0  0  0  0  0  0  0  0
  -19.6060  -28.3230   55.7060 C   0  0  0  0  0  0  0  0  0  0  0  0
  -18.2750  -27.6790   55.4560 C   0  0  0  0  0  0  0  0  0  0  0  0
  -17.2660  -28.7680   55.2450 S   0  0  0  0  0  0  0  0  0  0  0  0
  -20.1570  -30.5190   55.7810 H   0  0  0  0  0  0  0  0  0  0  0  0
  -14.3710  -33.7570   57.6380 C   0  0  0  0  0  0  0  0  0  0  0  0
  -15.0010  -34.2630   56.3740 C   0  0  0  0  0  0  0  0  0  0  0  0
  -15.9880  -33.4100   55.6350 C   0  0  0  0  0  0  0  0  0  0  0  0
  -16.7660  -33.6390   54.3730 N   0  0  0  0  0  0  0  0  0  0  0  0
  -17.6050  -32.4210   54.1170 C   0  0  0  0  0  0  0  0  0  0  0  0
  -17.3450  -31.4400   55.2220 N   0  0  0  0  0  0  0  0  0  0  0  0
  -16.3460  -32.0510   56.1590 C   0  0  0  0  0  0  0  0  0  0  0  0
  -15.7160  -31.5450   57.4240 C   0  0  0  0  0  0  0  0  0  0  0  0
  -14.7280  -32.3980   58.1630 C   0  0  0  0  0  0  0  0  0  0  0  0
  -14.7550  -35.1980   56.0130 H   0  0  0  0  0  0  0  0  0  0  0  0
  -18.2470  -32.2830   53.3220 H   0  0  0  0  0  0  0  0  0  0  0  0
  -15.9620  -30.6100   57.7840 H   0  0  0  0  0  0  0  0  0  0  0  0
  -13.3830  -34.6100   58.3780 O   0  0  0  0  0  0  0  0  0  0  0  0
  -12.4630  -35.5210   57.6190 C   0  0  0  0  0  0  0  0  0  0  0  0
  -12.5110  -35.5610   56.5510 H   0  0  0  0  0  0  0  0  0  0  0  0
  -11.7590  -36.1290   58.1470 H   0  0  0  0  0  0  0  0  0  0  0  0
  -11.8060  -36.1700   57.0780 H   0  0  0  0  0  0  0  0  0  0  0  0
  -14.0980  -31.8930   59.4270 O   0  0  0  0  0  0  0  0  0  0  0  0
  -12.6690  -31.4370   59.4220 C   0  0  0  0  0  0  0  0  0  0  0  0
  -12.2190  -31.0760   60.3240 H   0  0  0  0  0  0  0  0  0  0  0  0
  -12.0990  -31.4730   58.5170 H   0  0  0  0  0  0  0  0  0  0  0  0
  -11.6500  -31.1120   59.4180 H   0  0  0  0  0  0  0  0  0  0  0  0
  -18.0010  -26.2040   55.4240 C   0  0  0  0  0  3  0  0  0  0  0  0
  -16.6290  -25.7040   55.0860 O   0  0  0  0  0  1  0  0  0  0  0  0
  -19.1000  -25.2300   55.7310 C   0  0  0  0  0  0  0  0  0  0  0  0
  -20.0800  -25.5870   55.9730 H   0  0  0  0  0  0  0  0  0  0  0  0
  -18.9050  -24.1790   55.7080 H   0  0  0  0  0  0  0  0  0  0  0  0
  -19.8840  -24.5360   55.9500 H   0  0  0  0  0  0  0  0  0  0  0  0
  -20.8980  -27.6050   55.9670 O   0  0  0  0  0  0  0  0  0  0  0  0
  -21.8860  -27.4100   54.8550 C   0  0  0  0  0  0  0  0  0  0  0  0
  -21.5410  -27.1960   53.8650 H   0  0  0  0  0  0  0  0  0  0  0  0
  -22.5900  -27.2700   54.0620 H   0  0  0  0  0  0  0  0  0  0  0  0
  -23.3560  -27.5140   55.1310 C   0  0  0  0  0  0  0  0  0  0  0  0
  -24.0260  -28.8560   55.1310 C   0  0  0  0  0  0  0  0  0  0  0  0
  -25.4970  -28.9590   55.4070 C   0  0  0  0  0  0  0  0  0  0  0  0
  -26.2980  -27.7210   55.6820 C   0  0  0  0  0  0  0  0  0  0  0  0
  -25.6280  -26.3790   55.6820 C   0  0  0  0  0  0  0  0  0  0  0  0
  -24.1570  -26.2750   55.4060 C   0  0  0  0  0  0  0  0  0  0  0  0
  -23.4750  -29.7070   54.9420 H   0  0  0  0  0  0  0  0  0  0  0  0
  -25.9580  -29.8830   55.4070 H   0  0  0  0  0  0  0  0  0  0  0  0
  -27.3100  -27.7930   55.8720 H   0  0  0  0  0  0  0  0  0  0  0  0
  -26.1780  -25.5270   55.8710 H   0  0  0  0  0  0  0  0  0  0  0  0
  -23.4870  -24.9340   55.4050 C   0  0  0  0  0  0  0  0  0  0  0  0
  -22.8160  -23.5910   55.4050 F   0  0  0  0  0  0  0  0  0  0  0  0
  -23.1190  -25.1170   56.8480 F   0  0  0  0  0  0  0  0  0  0  0  0
  -23.8550  -24.7500   53.9630 F   0  0  0  0  0  0  0  0  0  0  0  0
  1  2  2  0
  2  3  1  0
  2  6  1  0
  3 35  1  0
  4  3  2  0
  5  1  1  0
  5  4  1  0
  7 15  1  0
  7 19  1  0
  8  7  2  0
  9 13  2  0
  9  8  1  0
 10  9  1  0
 11 10  2  0
 11 12  1  0
 12  1  1  0
 12 13  1  0
 13 14  1  0
 14 18  1  0
 14 15  2  0
 15 24  1  0
 16  8  1  0
 17 11  1  0
 20 22  1  0
 20 19  1  0
 21 20  1  0
 23 20  1  0
 25 24  1  0
 25 26  1  0
 27 25  1  0
 28 25  1  0
 29 30  1  0
 29  4  1  0
 29 31  1  0
 31 34  1  0
 31 32  1  0
 33 31  1  0
 36 39  1  0
 36 35  1  0
 37 36  1  0
 38 36  1  0
 39 40  2  0
 39 44  1  0
 40 41  1  0
 41 46  1  0
 41 42  2  0
 42 47  1  0
 43 42  1  0
 43 48  1  0
 44 43  2  0
 45 40  1  0
 49 50  1  0
 49 44  1  0
 49 51  1  0
 52 49  1  0
M  END
>  <minimizedAffinity>  (128) 
-9.39894867

$$$$

     RDKit          3D

 29 31  0  0  0  0  0  0  0  0999 V2000
  -18.8320  -29.2700   54.7130 C   0  0  0  0  0  0  0  0  0  0  0  0
  -19.4040  -28.3700   53.6590 C   0  0  0  0  0  0  0  0  0  0  0  0
  -20.5930  -27.5110   53.9730 C   0  0  0  0  0  0  0  0  0  0  0  0
  -21.2100  -27.5520   55.3390 C   0  0  0  0  0  0  0  0  0  0  0  0
  -20.6370  -28.4530   56.3930 C   0  0  0  0  0  0  0  0  0  0  0  0
  -19.4470  -29.3120   56.0800 C   0  0  0  0  0  0  0  0  0  0  0  0
  -18.9810  -28.3410   52.7190 H   0  0  0  0  0  0  0  0  0  0  0  0
  -20.9880  -26.8910   53.2470 H   0  0  0  0  0  0  0  0  0  0  0  0
  -21.0610  -28.4820   57.3340 H   0  0  0  0  0  0  0  0  0  0  0  0
  -19.0540  -29.9310   56.8050 H   0  0  0  0  0  0  0  0  0  0  0  0
  -22.3980  -26.6940   55.6520 C   0  0  0  0  0  0  0  0  0  0  0  0
  -22.3600  -25.2620   56.0970 C   0  0  0  0  0  0  0  0  0  0  0  0
  -23.7730  -24.7990   56.2960 O   0  0  0  0  0  0  0  0  0  0  0  0
  -24.6850  -25.9460   55.9730 C   0  0  0  0  0  0  0  0  0  0  0  0
  -26.1800  -26.0740   55.9900 N   0  0  0  0  0  0  0  0  0  0  0  0
  -26.8250  -27.3740   55.6100 C   0  0  0  0  0  0  0  0  0  0  0  0
  -25.9760  -28.5450   55.2120 N   0  0  0  0  0  0  0  0  0  0  0  0
  -24.4810  -28.4160   55.1950 C   0  0  0  0  0  0  0  0  0  0  0  0
  -23.8360  -27.1160   55.5760 C   0  0  0  0  0  0  0  0  0  0  0  0
  -21.5100  -24.6940   56.2410 H   0  0  0  0  0  0  0  0  0  0  0  0
  -27.8530  -27.4630   55.6220 H   0  0  0  0  0  0  0  0  0  0  0  0
  -23.6320  -29.5870   54.7980 N   0  0  0  0  0  0  0  0  0  0  0  0
  -24.0560  -30.4400   54.5480 H   0  0  0  0  0  0  0  0  0  0  0  0
  -22.6510  -29.5020   54.7870 H   0  0  0  0  0  0  0  0  0  0  0  0
  -17.6420  -30.1300   54.4000 O   0  0  0  0  0  0  0  0  0  0  0  0
  -16.4780  -30.1720   55.3460 C   0  0  0  0  0  0  0  0  0  0  0  0
  -16.4960  -29.5880   56.2430 H   0  0  0  0  0  0  0  0  0  0  0  0
  -15.6300  -30.7840   55.1230 H   0  0  0  0  0  0  0  0  0  0  0  0
  -15.6480  -30.2020   56.0200 H   0  0  0  0  0  0  0  0  0  0  0  0
  1  6  1  0
  2  3  1  0
  2  1  2  0
  3  4  2  0
  4 11  1  0
  4  5  1  0
  5  9  1  0
  6  5  2  0
  6 10  1  0
  7  2  1  0
  8  3  1  0
 11 12  2  0
 12 20  1  0
 12 13  1  0
 14 15  2  0
 14 13  1  0
 16 21  1  0
 16 15  1  0
 17 16  2  0
 18 17  1  0
 18 19  2  0
 19 11  1  0
 19 14  1  0
 22 18  1  0
 23 22  1  0
 24 22  1  0
 25  1  1  0
 25 26  1  0
 26 29  1  0
 26 27  1  0
 28 26  1  0
M  END
>  <minimizedAffinity>  (129) 
-6.74896717

$$$$

     RDKit          3D

 38 40  0  0  1  0  0  0  0  0999 V2000
  -18.9680  -27.2060   54.9710 C   0  0  0  0  0  0  0  0  0  0  0  0
  -20.4570  -27.2700   54.8060 C   0  0  0  0  0  3  0  0  0  0  0  0
  -21.2130  -28.2850   54.0000 C   0  0  0  0  0  0  0  0  0  0  0  0
  -20.6120  -29.4140   53.2170 O   0  0  0  0  0  0  0  0  0  0  0  0
  -22.6760  -27.9730   54.1140 N   0  0  0  0  0  0  0  0  0  0  0  0
  -22.8240  -26.7640   54.9910 C   0  0  0  0  0  0  0  0  0  0  0  0
  -24.0310  -26.0030   55.4560 C   0  0  0  0  0  0  0  0  0  0  0  0
  -23.8660  -24.8090   56.3470 C   0  0  0  0  0  0  0  0  0  0  0  0
  -22.4950  -24.3750   56.7750 C   0  0  0  0  0  0  0  0  0  0  0  0
  -21.2890  -25.1350   56.3100 C   0  0  0  0  0  0  0  0  0  0  0  0
  -21.4530  -26.3300   55.4190 C   0  0  0  0  0  0  0  0  0  0  0  0
  -23.4090  -28.4730   53.6890 H   0  0  0  0  0  0  0  0  0  0  0  0
  -24.9740  -26.3020   55.1620 H   0  0  0  0  0  0  0  0  0  0  0  0
  -24.6960  -24.2850   56.6670 H   0  0  0  0  0  0  0  0  0  0  0  0
  -22.3820  -23.5520   57.3880 H   0  0  0  0  0  0  0  0  0  0  0  0
  -20.3460  -24.8370   56.6040 H   0  0  0  0  0  0  0  0  0  0  0  0
  -18.3520  -26.1290   55.8120 C   0  0  0  0  0  0  0  0  0  0  0  0
  -18.9750  -25.4050   56.2950 H   0  0  0  0  0  0  0  0  0  0  0  0
  -17.2900  -26.0830   55.9290 H   0  0  0  0  0  0  0  0  0  0  0  0
  -17.9120  -25.3600   56.4120 H   0  0  0  0  0  0  0  0  0  0  0  0
  -18.0950  -28.2200   54.2940 N   0  0  0  0  0  4  0  0  0  0  0  0
  -17.9980  -28.2110   53.3140 H   0  0  0  0  0  0  0  0  0  0  0  0
  -17.3690  -29.2500   55.1090 C   0  0  0  0  0  0  0  0  0  0  0  0
  -15.9230  -29.0480   55.4550 C   0  0  0  0  0  0  0  0  0  0  0  0
  -15.1970  -30.0770   56.2700 C   0  0  0  0  0  0  0  0  0  0  0  0
  -15.9160  -31.3070   56.7400 C   0  0  0  0  0  0  0  0  0  0  0  0
  -17.3620  -31.5080   56.3940 C   0  0  0  0  0  0  0  0  0  0  0  0
  -18.0890  -30.4780   55.5790 C   0  0  0  0  0  0  0  0  0  0  0  0
  -15.4280  -28.2030   55.1320 H   0  0  0  0  0  0  0  0  0  0  0  0
  -14.2020  -29.9390   56.5080 H   0  0  0  0  0  0  0  0  0  0  0  0
  -17.8570  -32.3530   56.7170 H   0  0  0  0  0  0  0  0  0  0  0  0
  -19.0840  -30.6170   55.3410 H   0  0  0  0  0  0  0  0  0  0  0  0
  -15.1910  -32.3350   57.5550 S   0  0  2  0  0  0  0  0  0  0  0  0
  -16.4730  -33.0930   57.7400 O   0  0  0  0  0  0  0  0  0  0  0  0
  -13.9100  -31.5790   57.3710 O   0  0  0  0  0  0  0  0  0  0  0  0
  -14.4660  -33.3650   58.3710 N   0  0  0  0  0  0  0  0  0  0  0  0
  -14.9750  -34.1610   58.7560 H   0  0  0  0  0  0  0  0  0  0  0  0
  -13.4650  -33.2690   58.5390 H   0  0  0  0  0  0  0  0  0  0  0  0
  1 17  1  0
  2  1  1  0
  2 11  1  0
  3  5  1  0
  3  2  1  0
  4  3  2  0
  5  6  1  0
  6 11  2  0
  6  7  1  0
  7  8  2  0
  8 14  1  0
  8  9  1  0
  9 15  1  0
 10 16  1  0
 10  9  2  0
 11 10  1  0
 12  5  1  0
 13  7  1  0
 17 19  1  0
 17 18  1  0
 17 20  1  0
 21  1  2  0
 21 23  1  0
 22 21  1  0
 23 24  2  0
 23 28  1  0
 24 25  1  0
 25 30  1  0
 25 26  2  0
 26 33  1  0
 27 31  1  0
 27 26  1  0
 28 27  2  0
 29 24  1  0
 32 28  1  0
 33 34  2  0
 33 36  1  0
 35 33  2  0
 36 38  1  0
 36 37  1  0
M  END
>  <minimizedAffinity>  (130) 
-8.5496788

$$$$

     RDKit          3D

 57 60  0  0  0  0  0  0  0  0999 V2000
  -16.8580  -29.6670   55.0380 C   0  0  0  0  0  0  0  0  0  0  0  0
  -15.9350  -30.4960   55.8820 C   0  0  0  0  0  0  0  0  0  0  0  0
  -15.8550  -31.8640   55.2740 C   0  0  0  0  0  0  0  0  0  0  0  0
  -16.7280  -31.8820   54.0540 C   0  0  0  0  0  0  0  0  0  0  0  0
  -17.3480  -30.5230   53.9080 S   0  0  0  0  0  0  0  0  0  0  0  0
  -15.4430  -30.1800   56.7320 H   0  0  0  0  0  0  0  0  0  0  0  0
  -21.1010  -26.0810   55.9140 C   0  0  0  0  0  0  0  0  0  0  0  0
  -19.7600  -25.4080   55.9060 C   0  0  0  0  0  0  0  0  0  0  0  0
  -18.5170  -26.2180   55.6860 C   0  0  0  0  0  0  0  0  0  0  0  0
  -17.0670  -25.8360   55.6260 N   0  0  0  0  0  0  0  0  0  0  0  0
  -16.2690  -27.0820   55.3760 C   0  0  0  0  0  0  0  0  0  0  0  0
  -17.2260  -28.2330   55.2810 N   0  0  0  0  0  0  0  0  0  0  0  0
  -18.6150  -27.6990   55.4730 C   0  0  0  0  0  0  0  0  0  0  0  0
  -19.9560  -28.3710   55.4800 C   0  0  0  0  0  0  0  0  0  0  0  0
  -21.1990  -27.5610   55.7010 C   0  0  0  0  0  0  0  0  0  0  0  0
  -19.6930  -24.3890   56.0530 H   0  0  0  0  0  0  0  0  0  0  0  0
  -15.2430  -27.1370   55.2860 H   0  0  0  0  0  0  0  0  0  0  0  0
  -20.0230  -29.3900   55.3340 H   0  0  0  0  0  0  0  0  0  0  0  0
  -22.3450  -25.2700   56.1340 O   0  0  0  0  0  0  0  0  0  0  0  0
  -22.2390  -23.8120   56.4720 C   0  0  0  0  0  0  0  0  0  0  0  0
  -21.2780  -23.3500   56.5550 H   0  0  0  0  0  0  0  0  0  0  0  0
  -23.1270  -23.2350   56.6290 H   0  0  0  0  0  0  0  0  0  0  0  0
  -22.1650  -22.7720   56.7130 H   0  0  0  0  0  0  0  0  0  0  0  0
  -22.5410  -28.2330   55.7090 O   0  0  0  0  0  0  0  0  0  0  0  0
  -23.3790  -28.2470   54.4650 C   0  0  0  0  0  0  0  0  0  0  0  0
  -24.3360  -28.7260   54.4700 H   0  0  0  0  0  0  0  0  0  0  0  0
  -23.0210  -27.7770   53.5720 H   0  0  0  0  0  0  0  0  0  0  0  0
  -23.9770  -28.2560   53.5780 H   0  0  0  0  0  0  0  0  0  0  0  0
  -16.9430  -33.0520   53.1400 C   0  0  0  0  0  0  0  0  0  0  0  0
  -16.0370  -33.2600   51.9630 O   0  0  0  0  0  0  0  0  0  0  0  0
  -18.0640  -34.0130   53.4030 N   0  0  0  0  0  0  0  0  0  0  0  0
  -18.2790  -35.1820   52.4890 C   0  0  0  0  0  0  0  0  0  0  0  0
  -19.0800  -35.8680   52.6770 H   0  0  0  0  0  0  0  0  0  0  0  0
  -17.6340  -35.3320   51.6500 H   0  0  0  0  0  0  0  0  0  0  0  0
  -18.4330  -36.0170   51.8380 H   0  0  0  0  0  0  0  0  0  0  0  0
  -18.9700  -33.8040   54.5800 C   0  0  0  0  0  0  0  0  0  0  0  0
  -18.8170  -32.9690   55.2320 H   0  0  0  0  0  0  0  0  0  0  0  0
  -19.7700  -34.4890   54.7680 H   0  0  0  0  0  0  0  0  0  0  0  0
  -19.6170  -33.6550   55.4200 H   0  0  0  0  0  0  0  0  0  0  0  0
  -15.0450  -33.0150   55.7940 O   0  0  0  0  0  0  0  0  0  0  0  0
  -15.0870  -33.3640   57.2520 C   0  0  0  0  0  0  0  0  0  0  0  0
  -15.7870  -34.0900   57.6080 H   0  0  0  0  0  0  0  0  0  0  0  0
  -15.1180  -33.6140   58.2920 H   0  0  0  0  0  0  0  0  0  0  0  0
  -14.1480  -32.6950   58.2110 C   0  0  0  0  0  0  0  0  0  0  0  0
  -14.6220  -31.5400   59.0430 C   0  0  0  0  0  0  0  0  0  0  0  0
  -13.6820  -30.8720   60.0030 C   0  0  0  0  0  0  0  0  0  0  0  0
  -12.2700  -31.3580   60.1300 C   0  0  0  0  0  0  0  0  0  0  0  0
  -11.7950  -32.5130   59.2990 C   0  0  0  0  0  0  0  0  0  0  0  0
  -12.7350  -33.1820   58.3390 C   0  0  0  0  0  0  0  0  0  0  0  0
  -15.5940  -31.2060   58.9550 H   0  0  0  0  0  0  0  0  0  0  0  0
  -14.0080  -30.0770   60.5750 H   0  0  0  0  0  0  0  0  0  0  0  0
  -11.6230  -30.8980   60.7910 H   0  0  0  0  0  0  0  0  0  0  0  0
  -10.8230  -32.8480   59.3860 H   0  0  0  0  0  0  0  0  0  0  0  0
  -12.2610  -34.3370   57.5070 C   0  0  0  0  0  0  0  0  0  0  0  0
  -11.7870  -35.4920   56.6750 F   0  0  0  0  0  0  0  0  0  0  0  0
  -12.9810  -35.2870   58.4180 F   0  0  0  0  0  0  0  0  0  0  0  0
  -11.5420  -33.3860   56.5970 F   0  0  0  0  0  0  0  0  0  0  0  0
  1 12  1  0
  1  2  2  0
  2  6  1  0
  3 40  1  0
  3  2  1  0
  4  3  2  0
  5  4  1  0
  5  1  1  0
  7 19  1  0
  8  7  1  0
  8 16  1  0
  9  8  2  0
 10  9  1  0
 11 10  2  0
 12 11  1  0
 12 13  1  0
 13 14  2  0
 13  9  1  0
 14 15  1  0
 15 24  1  0
 15  7  2  0
 17 11  1  0
 18 14  1  0
 19 20  1  0
 20 21  1  0
 20 22  1  0
 20 23  1  0
 25 26  1  0
 25 24  1  0
 27 25  1  0
 28 25  1  0
 29 31  1  0
 29  4  1  0
 30 29  2  0
 31 36  1  0
 32 33  1  0
 32 31  1  0
 34 32  1  0
 35 32  1  0
 36 38  1  0
 36 37  1  0
 36 39  1  0
 40 41  1  0
 41 42  1  0
 41 44  1  0
 41 43  1  0
 44 49  2  0
 44 45  1  0
 45 46  2  0
 46 47  1  0
 46 51  1  0
 47 52  1  0
 48 53  1  0
 48 47  2  0
 49 48  1  0
 50 45  1  0
 54 49  1  0
 54 56  1  0
 55 54  1  0
 57 54  1  0
M  END
>  <minimizedAffinity>  (131) 
-8.65888977

$$$$

     RDKit          3D

 34 35  0  0  0  0  0  0  0  0999 V2000
  -16.3260  -25.8640   55.3650 C   0  0  0  0  0  0  0  0  0  0  0  0
  -15.2850  -26.9430   55.3760 N   0  0  0  0  0  0  0  0  0  0  0  0
  -15.6870  -28.3720   55.5920 C   0  0  0  0  0  0  0  0  0  0  0  0
  -17.1310  -28.7210   55.7970 C   0  0  0  0  0  3  0  0  0  0  0  0
  -18.1730  -27.6420   55.7860 C   0  0  0  0  0  0  0  0  0  0  0  0
  -17.7700  -26.2130   55.5690 C   0  0  0  0  0  0  0  0  0  0  0  0
  -19.0110  -25.3710   55.6090 N   0  0  0  0  0  0  0  0  0  0  0  0
  -20.1800  -26.2800   55.8490 C   0  0  0  0  0  0  0  0  0  0  0  0
  -19.6630  -27.6830   55.9590 N   0  0  0  0  0  0  0  0  0  0  0  0
  -14.9700  -29.1140   55.6000 H   0  0  0  0  0  0  0  0  0  0  0  0
  -17.4080  -29.7040   55.9460 H   0  0  0  0  0  0  0  0  0  0  0  0
  -21.6150  -25.8590   55.9610 C   0  0  0  0  0  0  0  0  0  0  0  0
  -22.8120  -26.7500   55.7960 N   0  0  0  0  0  0  0  0  0  0  0  0
  -24.0420  -25.9140   55.9910 O   0  0  0  0  0  0  0  0  0  0  0  0
  -23.6070  -24.5070   56.2760 N   0  0  0  0  0  0  0  0  0  0  0  0
  -22.1070  -24.4720   56.2580 C   0  0  0  0  0  0  0  0  0  0  0  0
  -21.2510  -23.2650   56.4940 N   0  0  0  0  0  0  0  0  0  0  0  0
  -20.2700  -23.3430   56.4610 H   0  0  0  0  0  0  0  0  0  0  0  0
  -21.6680  -22.3930   56.6820 H   0  0  0  0  0  0  0  0  0  0  0  0
  -20.4880  -28.9120   56.1990 C   0  0  0  0  0  0  0  0  0  0  0  0
  -20.7780  -29.1760   57.1950 H   0  0  0  0  0  0  0  0  0  0  0  0
  -21.0780  -29.7890   56.3710 H   0  0  0  0  0  0  0  0  0  0  0  0
  -20.9090  -29.7710   55.0440 C   0  0  0  0  0  0  0  0  0  0  0  0
  -21.4980  -30.6470   55.2150 H   0  0  0  0  0  0  0  0  0  0  0  0
  -20.6200  -29.5060   54.0480 H   0  0  0  0  0  0  0  0  0  0  0  0
  -21.2100  -30.3830   54.2190 H   0  0  0  0  0  0  0  0  0  0  0  0
  -15.9240  -24.4350   55.1480 O   0  0  0  0  0  0  0  0  0  0  0  0
  -14.6460  -23.9180   55.7400 C   0  0  0  0  0  3  0  0  0  0  0  0
  -14.1650  -24.4570   56.5290 H   0  0  0  0  0  0  0  0  0  0  0  0
  -15.0770  -24.8260   56.1070 H   0  0  0  0  0  0  0  0  0  0  0  0
  -14.0430  -22.6440   55.2260 C   0  0  0  0  0  0  0  0  0  0  0  0
  -13.1320  -22.2750   55.6490 H   0  0  0  0  0  0  0  0  0  0  0  0
  -14.5240  -22.1050   54.4370 H   0  0  0  0  0  0  0  0  0  0  0  0
  -13.6130  -21.7360   54.8600 H   0  0  0  0  0  0  0  0  0  0  0  0
  1  2  1  0
  1  6  1  0
  2  3  2  0
  3 10  1  0
  3  4  1  0
  4 11  1  0
  5  4  1  0
  5  9  1  0
  6  7  1  0
  6  5  2  0
  7  8  2  0
  8  9  1  0
  8 12  1  0
  9 20  1  0
 12 16  1  0
 13 12  2  0
 13 14  1  0
 14 15  1  0
 16 15  2  0
 16 17  1  0
 17 19  1  0
 18 17  1  0
 20 22  1  0
 20 21  1  0
 23 24  1  0
 23 20  1  0
 25 23  1  0
 26 23  1  0
 27  1  2  0
 28 30  1  0
 28 29  1  0
 31 32  1  0
 31 28  1  0
 33 31  1  0
 34 31  1  0
M  END
>  <minimizedAffinity>  (132) 
-8.28885555

$$$$

     RDKit          3D

 47 46  0  0  0  0  0  0  0  0999 V2000
  -21.9880  -32.6020   52.5040 C   0  0  0  0  0  0  0  0  0  0  0  0
  -21.0870  -31.5280   53.0360 C   0  0  0  0  0  1  0  0  0  0  0  0
  -19.6220  -31.7960   53.2110 C   0  0  0  0  0  3  0  0  0  0  0  0
  -19.0580  -33.1390   52.8530 C   0  0  0  0  0  3  0  0  0  0  0  0
  -19.9590  -34.2130   52.3210 C   0  0  0  0  0  1  0  0  0  0  0  0
  -19.3940  -35.5570   51.9630 O   0  0  0  0  0 15  0  0  0  0  0  0
  -21.4230  -33.9450   52.1470 N   0  0  0  0  0  4  0  0  0  0  0  0
  -20.0240  -30.8380   53.4660 H   0  0  0  0  0  0  0  0  0  0  0  0
  -18.0120  -33.3300   52.9770 H   0  0  0  0  0  0  0  0  0  0  0  0
  -18.6550  -34.0970   52.5980 H   0  0  0  0  0  0  0  0  0  0  0  0
  -22.0150  -34.6500   51.7970 H   0  0  0  0  0  0  0  0  0  0  0  0
  -18.7210  -30.7210   53.7430 C   0  0  0  0  0  0  0  0  0  0  0  0
  -18.4160  -30.6560   55.2100 C   0  0  0  0  0  0  0  0  0  0  0  0
  -17.5150  -29.5810   55.7420 C   0  0  0  0  0  0  0  0  0  0  0  0
  -16.9180  -28.5720   54.8070 C   0  0  0  0  0  0  0  0  0  0  0  0
  -17.2220  -28.6370   53.3390 C   0  0  0  0  0  0  0  0  0  0  0  0
  -18.1240  -29.7120   52.8070 C   0  0  0  0  0  0  0  0  0  0  0  0
  -18.8270  -31.3500   55.8540 H   0  0  0  0  0  0  0  0  0  0  0  0
  -17.3060  -29.5360   56.7510 H   0  0  0  0  0  0  0  0  0  0  0  0
  -16.8110  -27.9430   52.6950 H   0  0  0  0  0  0  0  0  0  0  0  0
  -18.3330  -29.7570   51.7980 H   0  0  0  0  0  0  0  0  0  0  0  0
  -16.0170  -27.4970   55.3390 C   0  0  0  0  0  0  0  0  0  0  0  0
  -15.1160  -26.4230   55.8710 F   0  0  0  0  0  0  0  0  0  0  0  0
  -15.1870  -28.5370   56.0320 F   0  0  0  0  0  0  0  0  0  0  0  0
  -16.8470  -26.4580   54.6460 F   0  0  0  0  0  0  0  0  0  0  0  0
  -23.4540  -32.3330   52.3300 C   0  0  0  0  0  0  0  0  0  0  0  0
  -23.8560  -31.3750   52.5850 H   0  0  0  0  0  0  0  0  0  0  0  0
  -24.0960  -33.1010   51.9500 H   0  0  0  0  0  0  0  0  0  0  0  0
  -24.4990  -32.1430   52.2050 H   0  0  0  0  0  0  0  0  0  0  0  0
  -21.6520  -30.1850   53.3940 C   0  0  0  0  0  2  0  0  0  0  0  0
  -21.7270  -29.1020   52.3580 O   0  0  0  0  0  1  0  0  0  0  0  0
  -22.1400  -29.9240   54.7880 N   0  0  0  0  0  0  0  0  0  0  0  0
  -22.0910  -30.6330   55.4680 H   0  0  0  0  0  0  0  0  0  0  0  0
  -22.7050  -28.5800   55.1450 C   0  0  0  0  0  0  0  0  0  0  0  0
  -24.1890  -28.3740   55.1720 C   0  0  0  0  0  0  0  0  0  0  0  0
  -24.7540  -27.0310   55.5300 C   0  0  0  0  0  0  0  0  0  0  0  0
  -26.2400  -26.8240   55.5570 Cl  0  0  0  0  0  0  0  0  0  0  0  0
  -23.8330  -25.8950   55.8610 C   0  0  0  0  0  0  0  0  0  0  0  0
  -24.0960  -24.4690   56.2470 N   0  0  0  0  0  0  0  0  0  0  0  0
  -22.7730  -23.7940   56.4590 N   0  0  0  0  0  0  0  0  0  0  0  0
  -21.6930  -24.8030   56.2030 C   0  0  0  0  0  0  0  0  0  0  0  0
  -22.3480  -26.1000   55.8340 C   0  0  0  0  0  0  0  0  0  0  0  0
  -21.7830  -27.4440   55.4760 C   0  0  0  0  0  0  0  0  0  0  0  0
  -24.8240  -29.1560   54.9450 H   0  0  0  0  0  0  0  0  0  0  0  0
  -24.9810  -24.0500   56.3440 H   0  0  0  0  0  0  0  0  0  0  0  0
  -20.6770  -24.6330   56.2700 H   0  0  0  0  0  0  0  0  0  0  0  0
  -20.7620  -27.5850   55.4570 H   0  0  0  0  0  0  0  0  0  0  0  0
  1  2  1  0
  3  8  1  0
  3 12  1  0
  4  9  1  0
  4  3  1  0
  7  5  1  0
  7  1  2  0
 10  4  1  0
 11  7  1  0
 12 13  1  0
 13 14  2  0
 13 18  1  0
 14 19  1  0
 15 22  1  0
 15 14  1  0
 16 15  2  0
 17 16  1  0
 17 12  2  0
 20 16  1  0
 21 17  1  0
 22 23  1  0
 22 24  1  0
 25 22  1  0
 26  1  1  0
 26 27  1  0
 28 26  1  0
 29 26  1  0
 30 32  1  0
 31 30  1  0
 32 34  1  0
 32 33  1  0
 34 35  2  0
 34 43  1  0
 35 36  1  0
 36 37  1  0
 36 38  2  0
 38 39  1  0
 39 45  1  0
 39 40  1  0
 41 46  1  0
 41 40  2  0
 42 38  1  0
 42 41  1  0
 43 42  2  0
 44 35  1  0
 47 43  1  0
M  END
>  <minimizedAffinity>  (133) 
-9.47094822

$$$$

     RDKit          3D

 73 73  0  0  1  0  0  0  0  0999 V2000
  -19.4490  -26.7750   55.8720 C   0  0  0  0  0  0  0  0  0  0  0  0
  -19.3380  -25.3470   56.3190 C   0  0  0  0  0  0  0  0  0  0  0  0
  -20.5770  -24.5240   56.5130 C   0  0  0  0  0  0  0  0  0  0  0  0
  -21.9270  -25.1280   56.2590 C   0  0  0  0  0  0  0  0  0  0  0  0
  -23.1650  -24.3050   56.4520 N   0  0  0  0  0  0  0  0  0  0  0  0
  -24.5150  -24.9090   56.1980 C   0  0  0  0  0  0  0  0  0  0  0  0
  -24.6250  -26.3370   55.7500 N   0  0  0  0  0  0  0  0  0  0  0  0
  -23.3860  -27.1600   55.5570 C   0  0  0  0  0  0  0  0  0  0  0  0
  -23.4970  -28.5870   55.1090 N   0  0  0  0  0  0  0  0  0  0  0  0
  -22.0370  -26.5560   55.8110 C   0  0  0  0  0  0  0  0  0  0  0  0
  -20.7980  -27.3790   55.6180 C   0  0  0  0  0  0  0  0  0  0  0  0
  -18.4100  -24.9320   56.4940 H   0  0  0  0  0  0  0  0  0  0  0  0
  -20.5020  -23.5420   56.8210 H   0  0  0  0  0  0  0  0  0  0  0  0
  -25.3670  -24.3430   56.3310 H   0  0  0  0  0  0  0  0  0  0  0  0
  -22.6830  -29.1280   54.9820 H   0  0  0  0  0  0  0  0  0  0  0  0
  -20.8740  -28.3610   55.3100 H   0  0  0  0  0  0  0  0  0  0  0  0
  -24.8460  -29.1910   54.8550 C   0  0  0  0  0  0  0  0  0  0  0  0
  -25.3530  -29.3300   53.4500 C   0  0  0  0  0  0  0  0  0  0  0  0
  -26.7020  -29.9340   53.1960 C   0  0  0  0  0  0  0  0  0  0  0  0
  -27.5440  -30.4000   54.3470 C   0  0  0  0  0  0  0  0  0  0  0  0
  -27.0370  -30.2610   55.7520 C   0  0  0  0  0  0  0  0  0  0  0  0
  -27.8790  -30.7270   56.9020 Cl  0  0  0  0  0  0  0  0  0  0  0  0
  -25.6880  -29.6570   56.0060 C   0  0  0  0  0  0  0  0  0  0  0  0
  -24.7740  -29.0090   52.6580 H   0  0  0  0  0  0  0  0  0  0  0  0
  -27.0510  -30.0290   52.2290 H   0  0  0  0  0  0  0  0  0  0  0  0
  -25.3390  -29.5620   56.9730 H   0  0  0  0  0  0  0  0  0  0  0  0
  -28.8930  -31.0040   54.0930 O   0  0  0  0  0  0  0  0  0  0  0  0
  -29.8600  -30.3190   53.1730 C   0  0  0  0  0  0  0  0  0  0  0  0
  -30.0120  -30.6930   52.1810 H   0  0  0  0  0  0  0  0  0  0  0  0
  -30.5500  -29.8310   52.5160 H   0  0  0  0  0  0  0  0  0  0  0  0
  -30.6150  -29.1110   53.6420 C   0  0  0  0  0  0  0  0  0  0  0  0
  -31.0610  -29.0140   55.0710 C   0  0  0  0  0  0  0  0  0  0  0  0
  -31.8160  -27.8050   55.5400 C   0  0  0  0  0  0  0  0  0  0  0  0
  -32.1250  -26.6950   54.5810 C   0  0  0  0  0  0  0  0  0  0  0  0
  -31.6790  -26.7920   53.1520 C   0  0  0  0  0  0  0  0  0  0  0  0
  -31.9880  -25.6820   52.1920 F   0  0  0  0  0  0  0  0  0  0  0  0
  -30.9240  -28.0000   52.6820 C   0  0  0  0  0  0  0  0  0  0  0  0
  -30.8480  -29.7780   55.7310 H   0  0  0  0  0  0  0  0  0  0  0  0
  -32.1230  -27.7380   56.5240 H   0  0  0  0  0  0  0  0  0  0  0  0
  -32.6440  -25.8630   54.9040 H   0  0  0  0  0  0  0  0  0  0  0  0
  -30.6180  -28.0670   51.6990 H   0  0  0  0  0  0  0  0  0  0  0  0
  -16.7170  -29.4900   55.3920 C   0  0  0  0  0  1  0  0  0  0  0  0
  -15.8900  -28.2400   55.3690 C   0  0  0  0  0  0  0  0  0  0  0  0
  -16.8130  -27.0700   55.5460 C   0  0  0  0  0  0  0  0  0  0  0  0
  -18.2100  -27.5980   55.6780 C   0  0  0  0  0  3  0  0  0  0  0  0
  -18.1510  -29.0940   55.5830 O   0  0  0  0  0  1  0  0  0  0  0  0
  -14.8660  -28.1920   55.2520 H   0  0  0  0  0  0  0  0  0  0  0  0
  -16.5340  -26.0760   55.5730 H   0  0  0  0  0  0  0  0  0  0  0  0
  -16.2020  -30.8910   55.2480 C   0  0  0  0  0  2  0  0  0  0  0  0
  -15.4710  -31.1190   54.5000 H   0  0  0  0  0  0  0  0  0  0  0  0
  -15.8390  -30.1190   54.6030 H   0  0  0  0  0  0  0  0  0  0  0  0
  -16.7100  -31.9740   56.1540 N   0  0  0  0  0  1  0  0  0  0  0  0
  -17.7020  -32.0210   56.3860 H   0  0  0  0  0  0  0  0  0  0  0  0
  -15.7600  -32.9880   56.7170 C   0  0  0  0  0  2  0  0  0  0  0  0
  -15.3800  -33.7710   56.0940 H   0  0  0  0  0  0  0  0  0  0  0  0
  -16.0590  -33.0470   55.6920 H   0  0  0  0  0  0  0  0  0  0  0  0
  -15.3400  -32.9050   58.1550 C   0  0  0  0  0  3  0  0  0  0  0  0
  -15.9710  -33.3070   58.9210 H   0  0  0  0  0  0  0  0  0  0  0  0
  -16.2700  -33.3660   57.8950 H   0  0  0  0  0  0  0  0  0  0  0  0
  -14.6840  -30.9080   58.4390 O   0  0  0  0  0  0  0  0  0  0  0  0
  -14.0370  -32.2590   58.5210 S   0  0  1  0  0  0  0  0  0  0  0  0
  -13.3900  -33.6090   58.6020 O   0  0  0  0  0  0  0  0  0  0  0  0
  -12.7340  -31.6130   58.8860 C   0  0  0  0  0  0  0  0  0  0  0  0
  -12.6050  -30.8610   60.1780 C   0  0  0  0  0  0  0  0  0  0  0  0
  -11.3010  -30.2150   60.5430 C   0  0  0  0  0  0  0  0  0  0  0  0
  -10.1270  -30.3200   59.6160 C   0  0  0  0  0  0  0  0  0  0  0  0
  -10.2560  -31.0720   58.3240 C   0  0  0  0  0  0  0  0  0  0  0  0
  -11.5590  -31.7180   57.9590 C   0  0  0  0  0  0  0  0  0  0  0  0
  -13.4140  -30.7890   60.8150 H   0  0  0  0  0  0  0  0  0  0  0  0
  -11.2140  -29.6980   61.4320 H   0  0  0  0  0  0  0  0  0  0  0  0
   -9.2300  -29.8750   59.8680 H   0  0  0  0  0  0  0  0  0  0  0  0
   -9.4470  -31.1430   57.6870 H   0  0  0  0  0  0  0  0  0  0  0  0
  -11.6470  -32.2350   57.0700 H   0  0  0  0  0  0  0  0  0  0  0  0
  1  2  1  0
  2 12  1  0
  2  3  2  0
  3 13  1  0
  4  5  1  0
  4  3  1  0
  6 14  1  0
  6  5  2  0
  7  6  1  0
  8  7  2  0
  8 10  1  0
  9  8  1  0
 10  4  2  0
 11 10  1  0
 11  1  2  0
 15  9  1  0
 16 11  1  0
 17  9  1  0
 17 23  1  0
 18 17  2  0
 19 18  1  0
 19 20  2  0
 20 21  1  0
 21 23  2  0
 21 22  1  0
 23 26  1  0
 24 18  1  0
 25 19  1  0
 27 20  1  0
 28 31  1  0
 28 27  1  0
 29 28  1  0
 30 28  1  0
 31 32  1  0
 32 33  2  0
 32 38  1  0
 33 39  1  0
 34 40  1  0
 34 33  1  0
 35 34  2  0
 36 35  1  0
 37 35  1  0
 37 31  2  0
 41 37  1  0
 43 42  1  0
 43 44  2  0
 44 48  1  0
 44 45  1  0
 45 46  1  0
 45  1  1  0
 47 43  1  0
 50 49  1  0
 51 49  1  0
 52 53  1  0
 55 54  1  0
 56 54  1  0
 57 61  1  0
 57 58  1  0
 59 57  1  0
 60 61  2  0
 61 62  2  0
 61 63  1  0
 63 64  1  0
 64 65  2  0
 64 69  1  0
 65 70  1  0
 66 71  1  0
 66 65  1  0
 67 66  2  0
 68 67  1  0
 68 63  2  0
 72 67  1  0
 73 68  1  0
M  END
>  <minimizedAffinity>  (134) 
-12.6200552

$$$$

     RDKit          3D

 65 62  0  0  0  0  0  0  0  0999 V2000
  -20.0160  -26.5280   55.5620 N   0  0  0  0  0  0  0  0  0  0  0  0
  -19.5940  -25.2240   56.1720 C   0  0  0  0  0  0  0  0  0  0  0  0
  -20.8310  -24.4500   56.5180 N   0  0  0  0  0  0  0  0  0  0  0  0
  -22.0190  -25.2760   56.1210 C   0  0  0  0  0  0  0  0  0  0  0  0
  -23.4950  -25.0250   56.2220 C   0  0  0  0  0  0  0  0  0  0  0  0
  -24.4660  -26.0570   55.7320 C   0  0  0  0  0  0  0  0  0  0  0  0
  -23.9630  -27.3410   55.1410 C   0  0  0  0  0  0  0  0  0  0  0  0
  -22.4870  -27.5920   55.0410 C   0  0  0  0  0  0  0  0  0  0  0  0
  -21.5160  -26.5600   55.5310 C   0  0  0  0  0  0  0  0  0  0  0  0
  -18.6220  -24.9140   56.3270 H   0  0  0  0  0  0  0  0  0  0  0  0
  -23.8410  -24.1420   56.6280 H   0  0  0  0  0  0  0  0  0  0  0  0
  -25.4820  -25.8840   55.8010 H   0  0  0  0  0  0  0  0  0  0  0  0
  -22.1410  -28.4750   54.6340 H   0  0  0  0  0  0  0  0  0  0  0  0
  -17.2230  -29.1340   54.8790 C   0  0  0  0  0  0  0  0  0  0  0  0
  -17.8020  -28.0190   55.6980 C   0  0  0  0  0  0  0  0  0  0  0  0
  -19.1010  -27.6090   55.0700 C   0  0  0  0  0  0  0  0  0  0  0  0
  -19.3240  -28.4710   53.8620 S   0  0  0  0  0  0  0  0  0  0  0  0
  -18.1630  -29.4130   53.7440 C   0  0  0  0  0  0  0  0  0  0  0  0
  -17.3810  -27.6070   56.5450 H   0  0  0  0  0  0  0  0  0  0  0  0
  -17.9750  -30.4510   52.6790 C   0  0  0  0  0  0  0  0  0  0  0  0
  -16.5960  -30.9270   52.3280 N   0  0  0  0  0  0  0  0  0  0  0  0
  -19.1670  -31.0160   51.9630 O   0  0  0  0  0  0  0  0  0  0  0  0
  -16.4740  -31.6080   51.6290 H   0  0  0  0  0  0  0  0  0  0  0  0
  -15.8140  -30.5570   52.7970 H   0  0  0  0  0  0  0  0  0  0  0  0
  -15.9290  -29.8450   55.1470 O   0  0  0  0  0  1  0  0  0  0  0  0
  -15.9080  -31.0520   56.0400 C   0  0  0  0  0  3  0  0  0  0  0  0
  -16.7010  -30.9230   55.3320 H   0  0  0  0  0  0  0  0  0  0  0  0
  -14.7970  -31.2320   57.0300 C   0  0  0  0  0  0  0  0  0  0  0  0
  -15.0360  -30.9550   58.4850 C   0  0  0  0  0  0  0  0  0  0  0  0
  -13.9250  -31.1350   59.4750 C   0  0  0  0  0  0  0  0  0  0  0  0
  -12.5730  -31.5920   59.0110 C   0  0  0  0  0  0  0  0  0  0  0  0
  -12.3340  -31.8690   57.5570 C   0  0  0  0  0  0  0  0  0  0  0  0
  -13.4460  -31.6880   56.5660 C   0  0  0  0  0  0  0  0  0  0  0  0
  -13.2060  -31.9650   55.1120 Cl  0  0  0  0  0  0  0  0  0  0  0  0
  -15.9660  -30.6410   58.8040 H   0  0  0  0  0  0  0  0  0  0  0  0
  -14.0880  -30.9450   60.4770 H   0  0  0  0  0  0  0  0  0  0  0  0
  -11.8080  -31.7160   59.6930 H   0  0  0  0  0  0  0  0  0  0  0  0
  -11.4040  -32.1830   57.2370 H   0  0  0  0  0  0  0  0  0  0  0  0
  -16.9980  -32.0770   55.9400 C   0  0  0  0  0  0  0  0  0  0  0  0
  -16.9840  -32.9370   56.5760 H   0  0  0  0  0  0  0  0  0  0  0  0
  -17.7910  -31.9480   55.2330 H   0  0  0  0  0  0  0  0  0  0  0  0
  -17.7760  -32.8080   55.8690 H   0  0  0  0  0  0  0  0  0  0  0  0
  -24.9350  -28.3730   54.6510 O   0  0  0  0  0  0  0  0  0  0  0  0
  -26.2560  -28.5450   55.3390 C   0  0  0  0  0  3  0  0  0  0  0  0
  -26.2920  -28.7080   56.3960 H   0  0  0  0  0  0  0  0  0  0  0  0
  -27.2000  -28.6680   55.8300 H   0  0  0  0  0  0  0  0  0  0  0  0
  -27.5280  -28.4880   54.5450 C   0  0  0  0  0  1  0  0  0  0  0  0
  -27.7730  -29.4820   53.4490 C   0  0  0  0  0  2  0  0  0  0  0  0
  -29.0440  -29.4250   52.6560 C   0  0  0  0  0  2  0  0  0  0  0  0
  -30.0710  -28.3730   52.9580 N   0  0  0  0  0  0  0  0  0  0  0  0
  -29.8260  -27.3790   54.0540 C   0  0  0  0  0  0  0  0  0  0  0  0
  -28.5540  -27.4370   54.8480 C   0  0  0  0  0  2  0  0  0  0  0  0
  -28.4350  -28.4470   53.9790 H   0  0  0  0  0  0  0  0  0  0  0  0
  -27.0410  -30.2320   53.2330 H   0  0  0  0  0  0  0  0  0  0  0  0
  -27.9480  -30.1910   52.6670 H   0  0  0  0  0  0  0  0  0  0  0  0
  -29.2200  -30.1340   51.8730 H   0  0  0  0  0  0  0  0  0  0  0  0
  -29.9520  -29.3840   52.0890 H   0  0  0  0  0  0  0  0  0  0  0  0
  -30.5580  -26.6290   54.2700 H   0  0  0  0  0  0  0  0  0  0  0  0
  -29.6510  -26.6700   54.8360 H   0  0  0  0  0  0  0  0  0  0  0  0
  -28.3800  -26.7280   55.6290 H   0  0  0  0  0  0  0  0  0  0  0  0
  -27.6470  -27.4780   55.4140 H   0  0  0  0  0  0  0  0  0  0  0  0
  -31.3420  -28.3160   52.1640 C   0  0  0  0  0  0  0  0  0  0  0  0
  -31.5170  -29.0250   51.3820 H   0  0  0  0  0  0  0  0  0  0  0  0
  -32.0740  -27.5660   52.3800 H   0  0  0  0  0  0  0  0  0  0  0  0
  -32.2500  -28.2760   51.5980 H   0  0  0  0  0  0  0  0  0  0  0  0
  1  2  1  0
  2 10  1  0
  2  3  2  0
  4  5  1  0
  4  3  1  0
  5 11  1  0
  6 12  1  0
  6  5  2  0
  7  6  1  0
  8  7  2  0
  8  9  1  0
  9  1  1  0
  9  4  2  0
 13  8  1  0
 14 25  1  0
 14 15  1  0
 15 19  1  0
 16  1  1  0
 16 15  2  0
 17 16  1  0
 18 17  1  0
 18 14  2  0
 20 18  1  0
 21 20  1  0
 21 24  1  0
 22 20  2  0
 23 21  1  0
 26 28  1  0
 27 26  1  0
 28 29  1  0
 29 35  1  0
 29 30  2  0
 30 36  1  0
 31 30  1  0
 31 37  1  0
 32 31  2  0
 33 28  2  0
 33 32  1  0
 34 33  1  0
 38 32  1  0
 39 26  1  0
 39 40  1  0
 41 39  1  0
 42 39  1  0
 43  7  1  0
 43 44  1  0
 44 46  1  0
 44 45  1  0
 50 51  2  0
 51 58  1  0
 51 59  1  0
 52 61  1  0
 52 60  1  0
 53 47  1  0
 54 48  1  0
 55 48  1  0
 56 49  1  0
 57 49  1  0
 62 64  1  0
 62 50  1  0
 63 62  1  0
 65 62  1  0
M  END
>  <minimizedAffinity>  (135) 
-11.1228399

$$$$

     RDKit          3D

 70 63  0  0  1  0  0  0  0  0999 V2000
  -18.3950  -28.6580   54.8400 C   0  0  0  0  0 15  0  0  0  0  0  0
  -19.4820  -28.9830   55.8220 C   0  0  0  0  0  3  0  0  0  0  0  0
  -20.4550  -30.0860   55.5260 C   0  0  0  0  0  0  0  0  0  0  0  0
  -20.3400  -30.8630   54.2480 C   0  0  0  0  0  0  0  0  0  0  0  0
  -19.2530  -30.5380   53.2660 C   0  0  0  0  0  0  0  0  0  0  0  0
  -18.2810  -29.4360   53.5620 C   0  0  0  0  0  3  0  0  0  0  0  0
  -19.5600  -28.4480   56.7000 H   0  0  0  0  0  0  0  0  0  0  0  0
  -21.2020  -30.3090   56.2010 H   0  0  0  0  0  0  0  0  0  0  0  0
  -17.5330  -29.2120   52.8870 H   0  0  0  0  0  0  0  0  0  0  0  0
  -15.4760  -25.3500   55.7280 N   0  0  0  0  0 15  0  0  0  0  0  0
  -15.0280  -26.7800   55.7820 C   0  0  0  0  0  2  0  0  0  0  0  0
  -16.0010  -27.8830   55.4860 C   0  0  0  0  0  2  0  0  0  0  0  0
  -17.4220  -27.5550   55.1360 C   0  0  0  0  0  1  0  0  0  0  0  0
  -17.8700  -26.1250   55.0820 C   0  0  0  0  0  2  0  0  0  0  0  0
  -16.8980  -25.0230   55.3780 C   0  0  0  0  0  2  0  0  0  0  0  0
  -14.0150  -27.0140   56.0320 H   0  0  0  0  0  0  0  0  0  0  0  0
  -14.7080  -27.8010   55.8210 H   0  0  0  0  0  0  0  0  0  0  0  0
  -15.6800  -28.9030   55.5250 H   0  0  0  0  0  0  0  0  0  0  0  0
  -16.6940  -28.6700   55.2750 H   0  0  0  0  0  0  0  0  0  0  0  0
  -18.4360  -27.3210   54.8860 H   0  0  0  0  0  0  0  0  0  0  0  0
  -18.8840  -25.8920   54.8320 H   0  0  0  0  0  0  0  0  0  0  0  0
  -18.1900  -25.1040   55.0440 H   0  0  0  0  0  0  0  0  0  0  0  0
  -17.2180  -24.0020   55.3400 H   0  0  0  0  0  0  0  0  0  0  0  0
  -16.2040  -24.2350   55.5890 H   0  0  0  0  0  0  0  0  0  0  0  0
  -14.5040  -24.2480   56.0240 C   0  0  0  0  0  2  0  0  0  0  0  0
  -14.0150  -24.2050   56.9760 H   0  0  0  0  0  0  0  0  0  0  0  0
  -14.7090  -24.9920   56.7640 H   0  0  0  0  0  0  0  0  0  0  0  0
  -14.2150  -23.2030   54.9870 C   0  0  0  0  0  3  0  0  0  0  0  0
  -13.7930  -23.4880   54.0460 H   0  0  0  0  0  0  0  0  0  0  0  0
  -13.9990  -24.2320   54.7860 H   0  0  0  0  0  0  0  0  0  0  0  0
  -14.5170  -21.7620   55.2690 C   0  0  0  0  0  0  0  0  0  0  0  0
  -14.9390  -21.4770   56.2110 H   0  0  0  0  0  0  0  0  0  0  0  0
  -14.3110  -21.0170   54.5290 H   0  0  0  0  0  0  0  0  0  0  0  0
  -14.7320  -20.7330   55.4710 H   0  0  0  0  0  0  0  0  0  0  0  0
  -21.3130  -31.9660   53.9510 N   0  0  0  0  0  4  0  0  0  0  0  0
  -22.7630  -31.6480   53.7330 C   0  0  0  0  0  0  0  0  0  0  0  0
  -23.2400  -30.2290   53.8100 N   0  0  0  0  0  0  0  0  0  0  0  0
  -24.6890  -29.9110   53.5920 C   0  0  0  0  0  3  0  0  0  0  0  0
  -25.6620  -31.0130   53.2960 C   0  0  0  0  0  0  0  0  0  0  0  0
  -27.1400  -31.0060   53.0370 C   0  0  0  0  0  0  0  0  0  0  0  0
  -27.5760  -32.4220   52.7990 C   0  0  0  0  0  0  0  0  0  0  0  0
  -26.3690  -33.3030   52.9110 N   0  0  0  0  0  0  0  0  0  0  0  0
  -25.1860  -32.4330   53.2180 C   0  0  0  0  0  0  0  0  0  0  0  0
  -23.7360  -32.7510   53.4370 N   0  0  0  0  0  2  0  0  0  0  0  0
  -21.0010  -32.8980   53.9000 H   0  0  0  0  0  0  0  0  0  0  0  0
  -27.7490  -30.1730   53.0240 H   0  0  0  0  0  0  0  0  0  0  0  0
  -28.5380  -32.7330   52.5950 H   0  0  0  0  0  0  0  0  0  0  0  0
  -26.3550  -34.2820   52.8020 H   0  0  0  0  0  0  0  0  0  0  0  0
  -25.1670  -28.4910   53.6690 N   0  0  0  0  0  0  0  0  0  0  0  0
  -25.9680  -28.2130   53.1720 H   0  0  0  0  0  0  0  0  0  0  0  0
  -24.4210  -27.4940   54.5070 C   0  0  0  0  0  0  0  0  0  0  0  0
  -22.9380  -27.3360   54.3420 C   0  0  0  0  0  0  0  0  0  0  0  0
  -22.1930  -26.3400   55.1790 C   0  0  0  0  0  0  0  0  0  0  0  0
  -20.7100  -26.1820   55.0150 F   0  0  0  0  0  0  0  0  0  0  0  0
  -22.9290  -25.5010   56.1810 C   0  0  0  0  0  0  0  0  0  0  0  0
  -24.4120  -25.6590   56.3450 C   0  0  0  0  0  0  0  0  0  0  0  0
  -25.1580  -26.6550   55.5080 C   0  0  0  0  0  0  0  0  0  0  0  0
  -22.4310  -27.9140   53.6530 H   0  0  0  0  0  0  0  0  0  0  0  0
  -22.4170  -24.8150   56.7570 H   0  0  0  0  0  0  0  0  0  0  0  0
  -24.9200  -25.0810   57.0350 H   0  0  0  0  0  0  0  0  0  0  0  0
  -26.6410  -26.8130   55.6730 C   0  0  0  0  0  0  0  0  0  0  0  0
  -27.5260  -25.6030   55.6850 N   0  0  0  0  0  0  0  0  0  0  0  0
  -27.2370  -28.1810   55.8250 O   0  0  0  0  0  0  0  0  0  0  0  0
  -28.5000  -25.7070   55.7930 H   0  0  0  0  0  0  0  0  0  0  0  0
  -27.1350  -24.7050   55.5850 H   0  0  0  0  0  0  0  0  0  0  0  0
  -19.1400  -31.3160   51.9890 O   0  0  0  0  0  0  0  0  0  0  0  0
  -18.3840  -32.6110   51.9630 C   0  0  0  0  0  0  0  0  0  0  0  0
  -18.3030  -33.1660   51.0510 H   0  0  0  0  0  0  0  0  0  0  0  0
  -17.9250  -32.9800   52.8560 H   0  0  0  0  0  0  0  0  0  0  0  0
  -17.8440  -33.5350   51.9450 H   0  0  0  0  0  0  0  0  0  0  0  0
  2  7  1  0
  3  2  2  0
  3  8  1  0
  4  3  1  0
  5  6  2  0
  5  4  1  0
  9  6  1  0
 11 17  1  0
 11 16  1  0
 12 18  1  0
 15 24  1  0
 19 12  1  0
 20 13  1  0
 21 14  1  0
 22 14  1  0
 23 15  1  0
 25 27  1  0
 25 26  1  0
 28 31  1  0
 29 28  1  0
 30 28  1  0
 31 34  1  0
 31 32  1  0
 33 31  1  0
 35  4  2  0
 36 37  2  0
 36 35  1  0
 38 49  1  0
 38 37  1  0
 39 38  1  0
 40 39  1  0
 41 42  1  0
 41 40  2  0
 42 43  1  0
 43 39  2  0
 43 44  1  0
 44 36  1  0
 45 35  1  0
 46 40  1  0
 47 41  1  0
 48 42  1  0
 49 51  1  0
 50 49  1  0
 51 57  1  0
 52 51  2  0
 52 53  1  0
 53 55  2  0
 54 53  1  0
 55 56  1  0
 55 59  1  0
 56 60  1  0
 57 61  1  0
 57 56  2  0
 58 52  1  0
 61 62  1  0
 61 63  2  0
 62 64  1  0
 65 62  1  0
 66  5  1  0
 67 66  1  0
 67 69  1  0
 68 67  1  0
 70 67  1  0
M  END
>  <minimizedAffinity>  (136) 
-9.45853806

$$$$

     RDKit          3D

 46 49  0  0  0  0  0  0  0  0999 V2000
  -15.6860  -30.0180   55.4280 C   0  0  0  0  0  0  0  0  0  0  0  0
  -15.8870  -28.5310   55.4410 C   0  0  0  0  0  0  0  0  0  0  0  0
  -17.2640  -27.9590   55.2850 C   0  0  0  0  0  0  0  0  0  0  0  0
  -18.4410  -28.8730   55.1160 C   0  0  0  0  0  0  0  0  0  0  0  0
  -18.2410  -30.3600   55.1030 C   0  0  0  0  0  0  0  0  0  0  0  0
  -16.8630  -30.9320   55.2590 C   0  0  0  0  0  0  0  0  0  0  0  0
  -15.0770  -27.9020   55.5580 H   0  0  0  0  0  0  0  0  0  0  0  0
  -17.4030  -26.9360   55.2950 H   0  0  0  0  0  0  0  0  0  0  0  0
  -19.0510  -30.9890   54.9860 H   0  0  0  0  0  0  0  0  0  0  0  0
  -16.7250  -31.9550   55.2490 H   0  0  0  0  0  0  0  0  0  0  0  0
  -10.1750  -32.3060   56.0510 C   0  0  0  0  0  0  0  0  0  0  0  0
   -9.6620  -32.6660   57.4130 C   0  0  0  0  0  0  0  0  0  0  0  0
  -10.5270  -32.4540   58.6210 C   0  0  0  0  0  0  0  0  0  0  0  0
  -11.9040  -31.8820   58.4650 C   0  0  0  0  0  0  0  0  0  0  0  0
  -12.7690  -31.6700   59.6720 N   0  0  0  0  0  0  0  0  0  0  0  0
  -14.1470  -31.0980   59.5160 C   0  0  0  0  0  0  0  0  0  0  0  0
  -14.6600  -30.7380   58.1530 N   0  0  0  0  0  0  0  0  0  0  0  0
  -13.7950  -30.9500   56.9460 C   0  0  0  0  0  0  0  0  0  0  0  0
  -14.3080  -30.5900   55.5830 N   0  0  0  0  0  0  0  0  0  0  0  0
  -12.4170  -31.5220   57.1020 C   0  0  0  0  0  0  0  0  0  0  0  0
  -11.5530  -31.7340   55.8950 C   0  0  0  0  0  0  0  0  0  0  0  0
   -8.7140  -33.0600   57.5210 H   0  0  0  0  0  0  0  0  0  0  0  0
  -10.1740  -32.7020   59.5580 H   0  0  0  0  0  0  0  0  0  0  0  0
  -14.7420  -30.9520   60.3470 H   0  0  0  0  0  0  0  0  0  0  0  0
  -13.7410  -30.7290   54.7920 H   0  0  0  0  0  0  0  0  0  0  0  0
  -11.9060  -31.4860   54.9570 H   0  0  0  0  0  0  0  0  0  0  0  0
   -9.3100  -32.5190   54.8440 O   0  0  0  0  0  0  0  0  0  0  0  0
   -9.1610  -31.4270   53.8260 C   0  0  0  0  0  0  0  0  0  0  0  0
   -9.6720  -30.4960   53.9610 H   0  0  0  0  0  0  0  0  0  0  0  0
   -8.5440  -31.5780   52.9650 H   0  0  0  0  0  0  0  0  0  0  0  0
   -9.0550  -30.6470   53.1000 H   0  0  0  0  0  0  0  0  0  0  0  0
  -19.8190  -28.3010   54.9610 O   0  0  0  0  0  0  0  0  0  0  0  0
  -20.6270  -27.9500   56.1750 C   0  0  0  0  0  0  0  0  0  0  0  0
  -20.5620  -28.5570   57.0540 H   0  0  0  0  0  0  0  0  0  0  0  0
  -21.2040  -27.7000   57.0410 H   0  0  0  0  0  0  0  0  0  0  0  0
  -21.5260  -26.7500   56.1560 C   0  0  0  0  0  0  0  0  0  0  0  0
  -22.9520  -26.8870   55.7110 C   0  0  0  0  0  0  0  0  0  0  0  0
  -23.8510  -25.6870   55.6920 C   0  0  0  0  0  0  0  0  0  0  0  0
  -23.3240  -24.3490   56.1190 C   0  0  0  0  0  0  0  0  0  0  0  0
  -21.8980  -24.2110   56.5640 C   0  0  0  0  0  0  0  0  0  0  0  0
  -20.9990  -25.4120   56.5820 C   0  0  0  0  0  0  0  0  0  0  0  0
  -23.3140  -27.8080   55.4180 H   0  0  0  0  0  0  0  0  0  0  0  0
  -24.8320  -25.7810   55.3860 H   0  0  0  0  0  0  0  0  0  0  0  0
  -23.9430  -23.5220   56.1060 H   0  0  0  0  0  0  0  0  0  0  0  0
  -21.5360  -23.2900   56.8570 H   0  0  0  0  0  0  0  0  0  0  0  0
  -20.0190  -25.3170   56.8880 H   0  0  0  0  0  0  0  0  0  0  0  0
  1  2  1  0
  1 19  1  0
  2  7  1  0
  3  8  1  0
  3  2  2  0
  4  3  1  0
  5  4  2  0
  5  6  1  0
  6  1  2  0
  9  5  1  0
 10  6  1  0
 11 12  1  0
 12 22  1  0
 12 13  2  0
 13 23  1  0
 14 13  1  0
 14 15  1  0
 16 15  2  0
 16 24  1  0
 17 16  1  0
 18 20  1  0
 18 17  2  0
 19 18  1  0
 20 14  2  0
 21 11  2  0
 21 20  1  0
 25 19  1  0
 26 21  1  0
 27 11  1  0
 28 29  1  0
 28 27  1  0
 30 28  1  0
 31 28  1  0
 32  4  1  0
 32 33  1  0
 33 35  1  0
 33 34  1  0
 36 33  1  0
 36 41  1  0
 37 36  2  0
 38 37  1  0
 38 39  2  0
 39 40  1  0
 40 41  2  0
 40 45  1  0
 41 46  1  0
 42 37  1  0
 43 38  1  0
 44 39  1  0
M  END
>  <minimizedAffinity>  (137) 
-9.33694744

$$$$

     RDKit          3D

 61 65  0  0  0  0  0  0  0  0999 V2000
  -16.2260  -34.6400   55.3130 N   0  0  0  0  0  0  0  0  0  0  0  0
  -17.5430  -34.0410   54.9180 C   0  0  0  0  0  0  0  0  0  0  0  0
  -18.6680  -34.9290   54.4750 N   0  0  0  0  0  0  0  0  0  0  0  0
  -19.9850  -34.3300   54.0800 C   0  0  0  0  0  3  0  0  0  0  0  0
  -20.1780  -32.8430   54.1300 C   0  0  0  0  0  0  0  0  0  0  0  0
  -21.3550  -31.9720   53.8030 C   0  0  0  0  0  0  0  0  0  0  0  0
  -20.9570  -30.5460   54.0440 N   0  0  0  0  0  0  0  0  0  0  0  0
  -19.5350  -30.5360   54.5200 C   0  0  0  0  0  0  0  0  0  0  0  0
  -19.0530  -31.9550   54.5730 N   0  0  0  0  0  0  0  0  0  0  0  0
  -17.7360  -32.5540   54.9680 N   0  0  0  0  0  2  0  0  0  0  0  0
  -16.1000  -35.6160   55.2810 H   0  0  0  0  0  0  0  0  0  0  0  0
  -20.7590  -34.9410   53.7750 H   0  0  0  0  0  0  0  0  0  0  0  0
  -18.7340  -29.3190   54.8810 C   0  0  0  0  0  0  0  0  0  0  0  0
  -17.2790  -29.2480   54.5260 C   0  0  0  0  0  0  0  0  0  0  0  0
  -16.4780  -28.0310   54.8860 C   0  0  0  0  0  0  0  0  0  0  0  0
  -17.1330  -26.8870   55.6010 C   0  0  0  0  0  0  0  0  0  0  0  0
  -18.5890  -26.9580   55.9560 C   0  0  0  0  0  0  0  0  0  0  0  0
  -19.3890  -28.1750   55.5960 C   0  0  0  0  0  0  0  0  0  0  0  0
  -16.8280  -30.0350   54.0350 H   0  0  0  0  0  0  0  0  0  0  0  0
  -15.4760  -27.9820   54.6420 H   0  0  0  0  0  0  0  0  0  0  0  0
  -16.5830  -26.0500   55.8490 H   0  0  0  0  0  0  0  0  0  0  0  0
  -20.3900  -28.2240   55.8390 H   0  0  0  0  0  0  0  0  0  0  0  0
  -19.2440  -25.8140   56.6710 O   0  0  0  0  0  0  0  0  0  0  0  0
  -20.6830  -25.4870   56.4010 C   0  0  0  0  0  0  0  0  0  0  0  0
  -21.6290  -26.5680   55.9680 C   0  0  0  0  0  0  0  0  0  0  0  0
  -23.0680  -26.2410   55.6990 C   0  0  0  0  0  0  0  0  0  0  0  0
  -23.5610  -24.8340   55.8630 C   0  0  0  0  0  0  0  0  0  0  0  0
  -22.6150  -23.7530   56.2970 C   0  0  0  0  0  0  0  0  0  0  0  0
  -21.1760  -24.0800   56.5660 C   0  0  0  0  0  0  0  0  0  0  0  0
  -21.2900  -27.5360   55.8550 H   0  0  0  0  0  0  0  0  0  0  0  0
  -23.7190  -26.9840   55.4010 H   0  0  0  0  0  0  0  0  0  0  0  0
  -24.5510  -24.6080   55.6780 H   0  0  0  0  0  0  0  0  0  0  0  0
  -22.9540  -22.7850   56.4100 H   0  0  0  0  0  0  0  0  0  0  0  0
  -20.5250  -23.3370   56.8640 H   0  0  0  0  0  0  0  0  0  0  0  0
  -13.0570  -32.2540   55.1840 C   0  0  0  0  0  0  0  0  0  0  0  0
  -14.1820  -33.1420   54.7400 C   0  0  0  0  0  0  0  0  0  0  0  0
  -15.1010  -33.7530   55.7560 C   0  0  0  0  0  0  0  0  0  0  0  0
  -14.8950  -33.4760   57.2160 C   0  0  0  0  0  0  0  0  0  0  0  0
  -13.7700  -32.5880   57.6600 C   0  0  0  0  0  0  0  0  0  0  0  0
  -12.8510  -31.9770   56.6440 C   0  0  0  0  0  0  0  0  0  0  0  0
  -14.3240  -33.3330   53.7360 H   0  0  0  0  0  0  0  0  0  0  0  0
  -15.5270  -33.8960   57.9150 H   0  0  0  0  0  0  0  0  0  0  0  0
  -12.1380  -31.6430   54.1680 O   0  0  0  0  0  0  0  0  0  0  0  0
  -10.8330  -32.3070   53.8430 C   0  0  0  0  0  0  0  0  0  0  0  0
  -10.1770  -31.8710   53.1180 H   0  0  0  0  0  0  0  0  0  0  0  0
  -10.5570  -33.2160   54.3360 H   0  0  0  0  0  0  0  0  0  0  0  0
   -9.9010  -32.7800   53.6110 H   0  0  0  0  0  0  0  0  0  0  0  0
  -13.5640  -32.3110   59.1190 O   0  0  0  0  0  0  0  0  0  0  0  0
  -13.9540  -30.9810   59.6930 C   0  0  0  0  0  0  0  0  0  0  0  0
  -14.3780  -30.2290   59.0600 H   0  0  0  0  0  0  0  0  0  0  0  0
  -13.8070  -30.7830   60.7340 H   0  0  0  0  0  0  0  0  0  0  0  0
  -14.2310  -30.0310   60.1020 H   0  0  0  0  0  0  0  0  0  0  0  0
  -11.7270  -31.0900   57.0870 O   0  0  0  0  0  0  0  0  0  0  0  0
  -10.4430  -31.6930   57.5750 C   0  0  0  0  0  0  0  0  0  0  0  0
  -10.3290  -32.7560   57.6070 H   0  0  0  0  0  0  0  0  0  0  0  0
   -9.6400  -31.0590   57.8920 H   0  0  0  0  0  0  0  0  0  0  0  0
   -9.5270  -32.1230   57.9230 H   0  0  0  0  0  0  0  0  0  0  0  0
  -22.6940  -32.4440   53.3190 C   0  0  0  0  0  0  0  0  0  0  0  0
  -22.8740  -33.4900   53.1790 H   0  0  0  0  0  0  0  0  0  0  0  0
  -23.4690  -31.7350   53.1140 H   0  0  0  0  0  0  0  0  0  0  0  0
  -23.6490  -32.7810   52.9740 H   0  0  0  0  0  0  0  0  0  0  0  0
  1 37  1  0
  2 10  1  0
  2  1  1  0
  3  2  2  0
  4  5  1  0
  4  3  1  0
  5  9  1  0
  6  7  1  0
  6  5  2  0
  7  8  2  0
  8  9  1  0
  8 13  1  0
  9 10  1  0
 11  1  1  0
 12  4  1  0
 13 18  1  0
 14 13  2  0
 14 15  1  0
 15 16  2  0
 16 21  1  0
 16 17  1  0
 17 23  1  0
 18 22  1  0
 18 17  2  0
 19 14  1  0
 20 15  1  0
 24 29  1  0
 24 23  1  0
 25 24  2  0
 26 27  2  0
 26 25  1  0
 27 28  1  0
 28 33  1  0
 28 29  2  0
 29 34  1  0
 30 25  1  0
 31 26  1  0
 32 27  1  0
 35 40  1  0
 36 35  2  0
 36 37  1  0
 37 38  2  0
 38 39  1  0
 38 42  1  0
 39 48  1  0
 40 53  1  0
 40 39  2  0
 41 36  1  0
 43 35  1  0
 44 43  1  0
 44 46  1  0
 45 44  1  0
 47 44  1  0
 48 49  1  0
 49 52  1  0
 49 51  1  0
 50 49  1  0
 53 54  1  0
 54 55  1  0
 54 56  1  0
 54 57  1  0
 58  6  1  0
 59 58  1  0
 60 58  1  0
 61 58  1  0
M  END
>  <minimizedAffinity>  (138) 
-9.0061655

$$$$

     RDKit          3D

 43 43  0  0  0  0  0  0  0  0999 V2000
  -21.9450  -32.5960   52.4690 C   0  0  0  0  0  2  0  0  0  0  0  0
  -21.0550  -31.5190   53.0140 C   0  0  0  0  0 15  0  0  0  0  0  0
  -19.5920  -31.7820   53.2080 C   0  0  0  0  0  0  0  0  0  0  0  0
  -19.0180  -33.1230   52.8580 N   0  0  0  0  0  4  0  0  0  0  0  0
  -19.9090  -34.2000   52.3130 C   0  0  0  0  0  0  0  0  0  0  0  0
  -19.3350  -35.5420   51.9630 O   0  0  0  0  0  0  0  0  0  0  0  0
  -21.3720  -33.9360   52.1190 N   0  0  0  0  0  0  0  0  0  0  0  0
  -20.0000  -30.8250   53.4580 H   0  0  0  0  0  0  0  0  0  0  0  0
  -18.0570  -33.2960   52.9860 H   0  0  0  0  0  0  0  0  0  0  0  0
  -21.9560  -34.6430   51.7620 H   0  0  0  0  0  0  0  0  0  0  0  0
  -18.7010  -30.7050   53.7530 C   0  0  0  0  0  0  0  0  0  0  0  0
  -18.3910  -30.6580   55.2200 C   0  0  0  0  0  0  0  0  0  0  0  0
  -17.5000  -29.5810   55.7640 C   0  0  0  0  0  0  0  0  0  0  0  0
  -16.9200  -28.5500   54.8420 C   0  0  0  0  0  0  0  0  0  0  0  0
  -16.0290  -27.4730   55.3860 F   0  0  0  0  0  0  0  0  0  0  0  0
  -17.2300  -28.5970   53.3740 C   0  0  0  0  0  0  0  0  0  0  0  0
  -18.1200  -29.6740   52.8300 C   0  0  0  0  0  0  0  0  0  0  0  0
  -18.7900  -31.3670   55.8550 H   0  0  0  0  0  0  0  0  0  0  0  0
  -17.2870  -29.5480   56.7730 H   0  0  0  0  0  0  0  0  0  0  0  0
  -16.8300  -27.8870   52.7400 H   0  0  0  0  0  0  0  0  0  0  0  0
  -18.3340  -29.7060   51.8210 H   0  0  0  0  0  0  0  0  0  0  0  0
  -23.4090  -32.3310   52.2750 C   0  0  0  0  0  0  0  0  0  0  0  0
  -23.8180  -31.3750   52.5250 H   0  0  0  0  0  0  0  0  0  0  0  0
  -24.0440  -33.1000   51.8870 H   0  0  0  0  0  0  0  0  0  0  0  0
  -24.4530  -32.1440   52.1360 H   0  0  0  0  0  0  0  0  0  0  0  0
  -21.6280  -30.1770   53.3640 C   0  0  0  0  0  2  0  0  0  0  0  0
  -21.7140  -29.1020   52.3210 O   0  0  0  0  0  1  0  0  0  0  0  0
  -22.1170  -29.9110   54.7570 N   0  0  0  0  0  0  0  0  0  0  0  0
  -22.0610  -30.6160   55.4420 H   0  0  0  0  0  0  0  0  0  0  0  0
  -22.6900  -28.5690   55.1070 C   0  0  0  0  0  0  0  0  0  0  0  0
  -24.1720  -28.3490   55.0500 C   0  0  0  0  0  0  0  0  0  0  0  0
  -24.7460  -27.0090   55.4000 C   0  0  0  0  0  0  0  0  0  0  0  0
  -23.8370  -25.8880   55.8070 C   0  0  0  0  0  0  0  0  0  0  0  0
  -24.1110  -24.4670   56.2060 N   0  0  0  0  0  0  0  0  0  0  0  0
  -22.7970  -23.8090   56.5100 N   0  0  0  0  0  0  0  0  0  0  0  0
  -21.7120  -24.8230   56.2990 C   0  0  0  0  0  0  0  0  0  0  0  0
  -22.3540  -26.1070   55.8650 C   0  0  0  0  0  0  0  0  0  0  0  0
  -21.7810  -27.4490   55.5150 C   0  0  0  0  0  0  0  0  0  0  0  0
  -24.7980  -29.1210   54.7690 H   0  0  0  0  0  0  0  0  0  0  0  0
  -25.7670  -26.8570   55.3600 H   0  0  0  0  0  0  0  0  0  0  0  0
  -24.9960  -24.0420   56.2590 H   0  0  0  0  0  0  0  0  0  0  0  0
  -20.7000  -24.6640   56.4300 H   0  0  0  0  0  0  0  0  0  0  0  0
  -20.7610  -27.6000   55.5540 H   0  0  0  0  0  0  0  0  0  0  0  0
  3  8  1  0
  3 11  1  0
  4  9  1  0
  4  3  2  3
  5  4  1  0
  6  5  2  0
  7  5  1  0
  7  1  1  0
 10  7  1  0
 11 12  1  0
 12 13  2  0
 12 18  1  0
 13 19  1  0
 14 15  1  0
 14 13  1  0
 16 14  2  0
 17 16  1  0
 17 11  2  0
 20 16  1  0
 21 17  1  0
 22  1  1  0
 22 23  1  0
 24 22  1  0
 25 22  1  0
 26 28  1  0
 27 26  1  0
 28 30  1  0
 28 29  1  0
 30 38  1  0
 31 30  2  0
 31 32  1  0
 32 33  2  0
 33 37  1  0
 33 34  1  0
 34 41  1  0
 34 35  1  0
 36 42  1  0
 36 35  2  0
 37 36  1  0
 38 43  1  0
 38 37  2  0
 39 31  1  0
 40 32  1  0
M  END
>  <minimizedAffinity>  (139) 
-8.3598671

$$$$

     RDKit          3D

 58 56  0  0  1  0  0  0  0  0999 V2000
  -15.7610  -31.6270   56.1620 N   0  0  0  0  0 15  0  0  0  0  0  0
  -14.6000  -31.0140   56.8880 C   0  0  0  0  0  2  0  0  0  0  0  0
  -14.6660  -29.5280   56.7000 N   0  0  0  0  0  2  0  0  0  0  0  0
  -15.8690  -29.2210   55.8580 C   0  0  0  0  0  3  0  0  0  0  0  0
  -16.4360  -27.9280   55.3510 C   0  0  0  0  0  0  0  0  0  0  0  0
  -17.6790  -27.9320   54.5110 N   0  0  0  0  0  0  0  0  0  0  0  0
  -18.3550  -29.2280   54.1790 C   0  0  0  0  0  0  0  0  0  0  0  0
  -17.7890  -30.5210   54.6850 C   0  0  0  0  0  0  0  0  0  0  0  0
  -16.5460  -30.5180   55.5250 C   0  0  0  0  0  3  0  0  0  0  0  0
  -18.2540  -31.4140   54.4570 H   0  0  0  0  0  0  0  0  0  0  0  0
  -13.5550  -31.7590   57.6650 C   0  0  0  0  0  0  0  0  0  0  0  0
  -12.5710  -32.7430   57.1030 N   0  0  0  0  0  0  0  0  0  0  0  0
  -11.7190  -33.2420   58.2320 O   0  0  0  0  0  0  0  0  0  0  0  0
  -12.1750  -32.5670   59.4920 N   0  0  0  0  0  0  0  0  0  0  0  0
  -13.3100  -31.6500   59.1420 C   0  0  0  0  0  0  0  0  0  0  0  0
  -14.0670  -30.7790   60.0990 N   0  0  0  0  0  0  0  0  0  0  0  0
  -14.8000  -30.2090   59.7720 H   0  0  0  0  0  0  0  0  0  0  0  0
  -13.8310  -30.7760   61.0550 H   0  0  0  0  0  0  0  0  0  0  0  0
  -16.0810  -33.0890   56.0850 C   0  0  0  0  0  3  0  0  0  0  0  0
  -16.6580  -33.5520   56.8600 H   0  0  0  0  0  0  0  0  0  0  0  0
  -16.4290  -32.5080   56.9140 H   0  0  0  0  0  0  0  0  0  0  0  0
  -15.5950  -33.9050   54.9250 C   0  0  0  0  0  0  0  0  0  0  0  0
  -15.0190  -33.4420   54.1500 H   0  0  0  0  0  0  0  0  0  0  0  0
  -15.8230  -34.9480   54.8700 H   0  0  0  0  0  0  0  0  0  0  0  0
  -15.2480  -34.4860   54.0960 H   0  0  0  0  0  0  0  0  0  0  0  0
  -15.7600  -26.6310   55.6840 C   0  0  0  0  0  0  0  0  0  0  0  0
  -15.0830  -25.3340   56.0160 C   0  0  0  0  0  0  0  0  0  0  0  0
  -14.4070  -24.0370   56.3490 C   0  0  0  0  0  0  0  0  0  0  0  0
  -14.7450  -23.5110   54.9860 C   0  0  0  0  0  0  0  0  0  0  0  0
  -15.2840  -24.1250   54.2940 H   0  0  0  0  0  0  0  0  0  0  0  0
  -14.4480  -22.5220   54.7050 H   0  0  0  0  0  0  0  0  0  0  0  0
  -14.9870  -23.1350   54.0130 H   0  0  0  0  0  0  0  0  0  0  0  0
  -14.0690  -24.5630   57.7130 C   0  0  0  0  0  0  0  0  0  0  0  0
  -13.5300  -23.9500   58.4040 H   0  0  0  0  0  0  0  0  0  0  0  0
  -14.3660  -25.5520   57.9930 H   0  0  0  0  0  0  0  0  0  0  0  0
  -13.8270  -24.9390   58.6850 H   0  0  0  0  0  0  0  0  0  0  0  0
  -13.7310  -22.7400   56.6820 O   0  0  0  0  0  0  0  0  0  0  0  0
  -13.7010  -22.0260   56.0260 H   0  0  0  0  0  0  0  0  0  0  0  0
  -19.5980  -29.2320   53.3390 O   0  0  0  0  0  0  0  0  0  0  0  0
  -20.5850  -28.1080   53.4540 C   0  0  0  0  0  2  0  0  0  0  0  0
  -20.6310  -27.3570   52.6940 H   0  0  0  0  0  0  0  0  0  0  0  0
  -21.2890  -27.3060   53.5370 H   0  0  0  0  0  0  0  0  0  0  0  0
  -21.5060  -28.0380   54.6360 C   0  0  0  0  0  3  0  0  0  0  0  0
  -21.2890  -28.9820   54.1840 H   0  0  0  0  0  0  0  0  0  0  0  0
  -21.8110  -26.7130   55.2710 C   0  0  0  0  0  0  0  0  0  0  0  0
  -20.7630  -26.0120   56.0840 C   0  0  0  0  0  0  0  0  0  0  0  0
  -21.0680  -24.6880   56.7190 C   0  0  0  0  0  0  0  0  0  0  0  0
  -22.4210  -24.0650   56.5410 C   0  0  0  0  0  0  0  0  0  0  0  0
  -23.4680  -24.7660   55.7280 C   0  0  0  0  0  0  0  0  0  0  0  0
  -23.1630  -26.0900   55.0930 C   0  0  0  0  0  0  0  0  0  0  0  0
  -19.8320  -26.4410   56.2070 H   0  0  0  0  0  0  0  0  0  0  0  0
  -20.3470  -24.2060   57.2780 H   0  0  0  0  0  0  0  0  0  0  0  0
  -22.6310  -23.1530   56.9780 H   0  0  0  0  0  0  0  0  0  0  0  0
  -24.3990  -24.3370   55.6060 H   0  0  0  0  0  0  0  0  0  0  0  0
  -23.8840  -26.5720   54.5340 H   0  0  0  0  0  0  0  0  0  0  0  0
  -22.1220  -29.2910   55.1830 N   0  0  0  0  0  0  0  0  0  0  0  0
  -22.7490  -29.2430   55.9870 H   0  0  0  0  0  0  0  0  0  0  0  0
  -21.9150  -30.1920   54.7520 H   0  0  0  0  0  0  0  0  0  0  0  0
  2 11  1  0
  3  2  1  0
  4  3  1  0
  5 26  1  0
  5  4  1  0
  6  5  2  0
  7  6  1  0
  7  8  1  0
  8  9  2  0
  9  4  1  0
 10  8  1  0
 11 15  1  0
 12 11  2  0
 12 13  1  0
 13 14  1  0
 15 14  2  0
 15 16  1  0
 16 18  1  0
 17 16  1  0
 19 20  1  0
 19 21  1  0
 22 19  1  0
 23 22  1  0
 24 22  1  0
 25 22  1  0
 26 27  3  0
 27 28  1  0
 28 37  1  0
 28 33  1  0
 29 28  1  0
 30 29  1  0
 31 29  1  0
 32 29  1  0
 33 35  1  0
 33 34  1  0
 33 36  1  0
 38 37  1  0
 39  7  2  0
 40 42  1  0
 41 40  1  0
 43 56  1  0
 43 45  1  0
 44 43  1  0
 45 46  1  0
 46 51  1  0
 46 47  2  0
 47 52  1  0
 48 47  1  0
 48 53  1  0
 49 48  2  0
 50 45  2  0
 50 49  1  0
 54 49  1  0
 55 50  1  0
 56 57  1  0
 58 56  1  0
M  END
>  <minimizedAffinity>  (140) 
-10.1145105

$$$$

     RDKit          3D

 47 48  0  0  0  0  0  0  0  0999 V2000
  -18.7850  -27.6510   55.9440 C   0  0  0  0  0  0  0  0  0  0  0  0
  -17.8100  -26.5370   56.1880 C   0  0  0  0  0  0  0  0  0  0  0  0
  -16.3470  -26.7510   55.9350 N   0  0  0  0  0  0  0  0  0  0  0  0
  -15.8590  -28.0790   55.4370 C   0  0  0  0  0  0  0  0  0  0  0  0
  -16.8340  -29.1930   55.1930 C   0  0  0  0  0  0  0  0  0  0  0  0
  -18.2960  -28.9790   55.4460 C   0  0  0  0  0  0  0  0  0  0  0  0
  -18.1460  -25.6230   56.5310 H   0  0  0  0  0  0  0  0  0  0  0  0
  -14.8520  -28.2270   55.2630 H   0  0  0  0  0  0  0  0  0  0  0  0
  -18.9670  -29.7450   55.2780 H   0  0  0  0  0  0  0  0  0  0  0  0
  -21.0910  -26.7340   55.1740 C   0  0  0  0  0  0  0  0  0  0  0  0
  -20.2480  -27.4370   56.1970 C   0  0  0  0  0  0  0  0  0  0  0  0
  -20.6640  -26.3970   54.2970 H   0  0  0  0  0  0  0  0  0  0  0  0
  -20.6740  -27.7730   57.0750 H   0  0  0  0  0  0  0  0  0  0  0  0
  -23.5410  -27.5890   55.0680 C   0  0  0  0  0  0  0  0  0  0  0  0
  -25.0040  -27.3750   55.3210 C   0  0  0  0  0  0  0  0  0  0  0  0
  -25.4790  -26.0910   55.9340 C   0  0  0  0  0  0  0  0  0  0  0  0
  -24.4910  -25.0210   56.2930 C   0  0  0  0  0  0  0  0  0  0  0  0
  -23.0280  -25.2350   56.0400 C   0  0  0  0  0  0  0  0  0  0  0  0
  -22.5530  -26.5190   55.4280 C   0  0  0  0  0  0  0  0  0  0  0  0
  -25.6840  -28.1110   55.0740 H   0  0  0  0  0  0  0  0  0  0  0  0
  -24.8180  -24.1370   56.7150 H   0  0  0  0  0  0  0  0  0  0  0  0
  -23.0660  -28.8730   54.4550 C   0  0  0  0  0  0  0  0  0  0  0  0
  -23.7720  -29.6360   54.1990 H   0  0  0  0  0  0  0  0  0  0  0  0
  -22.0230  -29.0260   54.2750 H   0  0  0  0  0  0  0  0  0  0  0  0
  -22.7280  -29.7890   54.0180 H   0  0  0  0  0  0  0  0  0  0  0  0
  -22.0400  -24.1650   56.4000 C   0  0  0  0  0  0  0  0  0  0  0  0
  -20.9960  -24.3180   56.2190 H   0  0  0  0  0  0  0  0  0  0  0  0
  -22.3790  -23.2490   56.8370 H   0  0  0  0  0  0  0  0  0  0  0  0
  -21.3350  -23.4020   56.6560 H   0  0  0  0  0  0  0  0  0  0  0  0
  -26.9420  -25.8760   56.1870 O   0  0  0  0  0  0  0  0  0  0  0  0
  -27.2380  -25.0740   56.5700 H   0  0  0  0  0  0  0  0  0  0  0  0
  -16.3450  -30.5210   54.6950 C   0  0  0  0  0  0  0  0  0  0  0  0
  -16.7990  -31.0350   53.3610 O   0  0  0  0  0  0  0  0  0  0  0  0
  -15.4030  -31.3350   55.5310 O   0  0  0  0  0  0  0  0  0  0  0  0
  -15.8310  -31.8220   56.8840 C   0  0  0  0  0  0  0  0  0  0  0  0
  -14.7390  -31.0150   57.5200 C   0  0  0  0  0  0  0  0  0  0  0  0
  -14.0850  -30.4250   56.9110 H   0  0  0  0  0  0  0  0  0  0  0  0
  -14.6130  -31.0270   58.5830 H   0  0  0  0  0  0  0  0  0  0  0  0
  -13.9590  -30.4380   57.9740 H   0  0  0  0  0  0  0  0  0  0  0  0
  -16.9230  -32.6300   56.2480 C   0  0  0  0  0  0  0  0  0  0  0  0
  -17.5770  -33.2200   56.8570 H   0  0  0  0  0  0  0  0  0  0  0  0
  -17.0480  -32.6180   55.1850 H   0  0  0  0  0  0  0  0  0  0  0  0
  -17.7020  -33.2070   55.7940 H   0  0  0  0  0  0  0  0  0  0  0  0
  -16.2580  -32.3100   58.2370 C   0  0  0  0  0  0  0  0  0  0  0  0
  -15.7360  -31.9840   59.1120 H   0  0  0  0  0  0  0  0  0  0  0  0
  -17.0850  -32.9830   58.3260 H   0  0  0  0  0  0  0  0  0  0  0  0
  -16.5630  -32.6570   59.2020 H   0  0  0  0  0  0  0  0  0  0  0  0
  1  2  1  0
  1 11  1  0
  2  7  1  0
  3  2  2  0
  4  3  1  0
  5  4  2  0
  5  6  1  0
  6  1  2  0
  8  4  1  0
  9  6  1  0
 10 19  1  0
 10 11  2  0
 11 13  1  0
 12 10  1  0
 14 15  2  0
 14 19  1  0
 15 16  1  0
 16 30  1  0
 16 17  2  0
 17 21  1  0
 18 17  1  0
 18 26  1  0
 19 18  2  0
 20 15  1  0
 22 14  1  0
 23 22  1  0
 24 22  1  0
 25 22  1  0
 26 29  1  0
 26 28  1  0
 27 26  1  0
 30 31  1  0
 32  5  1  0
 32 34  1  0
 33 32  2  0
 34 35  1  0
 35 36  1  0
 35 44  1  0
 36 39  1  0
 36 38  1  0
 37 36  1  0
 40 41  1  0
 40 35  1  0
 42 40  1  0
 43 40  1  0
 44 46  1  0
 44 45  1  0
 44 47  1  0
M  END
>  <minimizedAffinity>  (141) 
-8.37434483

$$$$

     RDKit          3D

 51 50  0  0  0  0  0  0  0  0999 V2000
  -19.5290  -27.7100   55.8480 C   0  0  0  0  0  0  0  0  0  0  0  0
  -19.1720  -26.2930   56.1850 C   0  0  0  0  0  0  0  0  0  0  0  0
  -20.2510  -25.2600   56.3180 C   0  0  0  0  0  0  0  0  0  0  0  0
  -21.6870  -25.6440   56.1140 C   0  0  0  0  0  0  0  0  0  0  0  0
  -22.7660  -24.6100   56.2470 N   0  0  0  0  0  0  0  0  0  0  0  0
  -24.2010  -24.9940   56.0430 C   0  0  0  0  0  0  0  0  0  0  0  0
  -24.5580  -26.4120   55.7060 N   0  0  0  0  0  0  0  0  0  0  0  0
  -23.4790  -27.4450   55.5720 C   0  0  0  0  0  0  0  0  0  0  0  0
  -23.8350  -28.8620   55.2350 N   0  0  0  0  0  0  0  0  0  0  0  0
  -22.0430  -27.0610   55.7770 C   0  0  0  0  0  0  0  0  0  0  0  0
  -20.9640  -28.0940   55.6430 C   0  0  0  0  0  0  0  0  0  0  0  0
  -18.1840  -26.0290   56.3250 H   0  0  0  0  0  0  0  0  0  0  0  0
  -20.0060  -24.2840   56.5500 H   0  0  0  0  0  0  0  0  0  0  0  0
  -24.9440  -24.2830   56.1350 H   0  0  0  0  0  0  0  0  0  0  0  0
  -23.1270  -29.5410   55.1470 H   0  0  0  0  0  0  0  0  0  0  0  0
  -21.2090  -29.0700   55.4110 H   0  0  0  0  0  0  0  0  0  0  0  0
  -25.2710  -29.2470   55.0310 C   0  0  0  0  0  0  0  0  0  0  0  0
  -26.0950  -29.7140   56.1940 C   0  0  0  0  0  0  0  0  0  0  0  0
  -27.5300  -30.0980   55.9890 C   0  0  0  0  0  0  0  0  0  0  0  0
  -28.1420  -30.0150   54.6220 C   0  0  0  0  0  0  0  0  0  0  0  0
  -29.5770  -30.3990   54.4180 F   0  0  0  0  0  0  0  0  0  0  0  0
  -27.3180  -29.5470   53.4600 C   0  0  0  0  0  0  0  0  0  0  0  0
  -27.9300  -29.4630   52.0930 Cl  0  0  0  0  0  0  0  0  0  0  0  0
  -25.8820  -29.1630   53.6640 C   0  0  0  0  0  0  0  0  0  0  0  0
  -25.6740  -29.7720   57.1340 H   0  0  0  0  0  0  0  0  0  0  0  0
  -28.0970  -30.4200   56.7900 H   0  0  0  0  0  0  0  0  0  0  0  0
  -25.3150  -28.8410   52.8630 H   0  0  0  0  0  0  0  0  0  0  0  0
  -17.2550  -30.8550   55.7810 C   0  0  0  0  0  3  0  0  0  0  0  0
  -18.5690  -30.1950   56.0750 N   0  0  0  0  0  0  0  0  0  0  0  0
  -18.4490  -28.7440   55.7140 C   0  0  0  0  0  0  0  0  0  0  0  0
  -17.0620  -28.5070   55.1970 C   0  0  0  0  0  0  0  0  0  0  0  0
  -16.3230  -29.8130   55.2380 S   0  0  0  0  0  0  0  0  0  0  0  0
  -16.6810  -27.6050   54.8700 H   0  0  0  0  0  0  0  0  0  0  0  0
  -16.9290  -32.3040   55.9920 C   0  0  0  0  0  2  0  0  0  0  0  0
  -16.9670  -32.9870   55.1680 H   0  0  0  0  0  0  0  0  0  0  0  0
  -17.1990  -31.9530   55.0180 H   0  0  0  0  0  0  0  0  0  0  0  0
  -16.5510  -32.7970   57.3570 N   0  0  0  0  0  1  0  0  0  0  0  0
  -17.1870  -32.6610   58.1430 H   0  0  0  0  0  0  0  0  0  0  0  0
  -15.2380  -33.4900   57.5670 C   0  0  0  0  0  2  0  0  0  0  0  0
  -15.2090  -34.5490   57.7200 H   0  0  0  0  0  0  0  0  0  0  0  0
  -16.1460  -34.0540   57.5700 H   0  0  0  0  0  0  0  0  0  0  0  0
  -13.9630  -32.6980   57.5640 C   0  0  0  0  0  3  0  0  0  0  0  0
  -13.3690  -32.6450   56.6760 H   0  0  0  0  0  0  0  0  0  0  0  0
  -14.2780  -33.2090   56.6780 H   0  0  0  0  0  0  0  0  0  0  0  0
  -13.5220  -31.9820   58.8060 S   0  0  1  0  0  0  0  0  0  0  0  0
  -14.4500  -30.8490   58.4820 O   0  0  0  0  0  0  0  0  0  0  0  0
  -12.5940  -33.1140   59.1290 O   0  0  0  0  0  0  0  0  0  0  0  0
  -13.0810  -31.2660   60.0470 C   0  0  0  0  0  0  0  0  0  0  0  0
  -12.3500  -31.7100   60.6900 H   0  0  0  0  0  0  0  0  0  0  0  0
  -13.4970  -30.3100   60.2910 H   0  0  0  0  0  0  0  0  0  0  0  0
  -12.7660  -30.7540   60.9330 H   0  0  0  0  0  0  0  0  0  0  0  0
  1  2  1  0
  2  3  2  0
  2 12  1  0
  3 13  1  0
  4  5  1  0
  4  3  1  0
  6 14  1  0
  6  5  2  0
  7  6  1  0
  8  7  2  0
  8 10  1  0
  9  8  1  0
 10  4  2  0
 11 10  1  0
 11  1  2  0
 15  9  1  0
 16 11  1  0
 17  9  1  0
 17 18  1  0
 18 25  1  0
 19 18  2  0
 19 26  1  0
 20 19  1  0
 21 20  1  0
 22 24  1  0
 22 20  2  0
 23 22  1  0
 24 17  2  0
 27 24  1  0
 28 29  2  0
 30  1  1  0
 30 29  1  0
 31 32  1  0
 31 30  2  0
 32 28  1  0
 33 31  1  0
 35 34  1  0
 36 34  1  0
 37 38  1  0
 39 41  1  0
 39 40  1  0
 42 45  1  0
 43 42  1  0
 44 42  1  0
 45 47  2  0
 45 48  1  0
 46 45  2  0
 48 50  1  0
 48 49  1  0
 48 51  1  0
M  END
>  <minimizedAffinity>  (142) 
-10.7749062

$$$$

     RDKit          3D

 38 40  0  0  0  0  0  0  0  0999 V2000
  -15.7030  -31.6820   57.2670 C   0  0  0  0  0  0  0  0  0  0  0  0
  -17.0020  -31.9900   56.5830 C   0  0  0  0  0  0  0  0  0  0  0  0
  -17.5790  -31.0180   55.5970 C   0  0  0  0  0  0  0  0  0  0  0  0
  -16.8570  -29.7390   55.2940 C   0  0  0  0  0  0  0  0  0  0  0  0
  -15.5580  -29.4310   55.9770 C   0  0  0  0  0  0  0  0  0  0  0  0
  -14.9810  -30.4030   56.9640 C   0  0  0  0  0  0  0  0  0  0  0  0
  -17.4990  -32.8700   56.7910 H   0  0  0  0  0  0  0  0  0  0  0  0
  -17.2540  -29.0700   54.6150 H   0  0  0  0  0  0  0  0  0  0  0  0
  -14.0870  -30.1910   57.4340 H   0  0  0  0  0  0  0  0  0  0  0  0
  -18.8790  -31.3260   54.9130 N   0  0  0  0  0  0  0  0  0  0  0  0
  -19.9740  -30.3020   54.8890 C   0  0  0  0  0  0  0  0  0  0  0  0
  -21.3210  -30.4660   54.2470 N   0  0  0  0  0  0  0  0  0  0  0  0
  -22.0940  -29.2000   54.4630 C   0  0  0  0  0  0  0  0  0  0  0  0
  -21.2270  -28.2530   55.2390 C   0  0  0  0  0  0  0  0  0  0  0  0
  -19.9170  -28.9340   55.5010 O   0  0  0  0  0  0  0  0  0  0  0  0
  -19.0130  -32.2000   54.4800 H   0  0  0  0  0  0  0  0  0  0  0  0
  -23.0550  -29.0130   54.1360 H   0  0  0  0  0  0  0  0  0  0  0  0
  -21.6030  -26.8680   55.6750 C   0  0  0  0  0  0  0  0  0  0  0  0
  -23.0420  -26.4450   55.6670 C   0  0  0  0  0  0  0  0  0  0  0  0
  -23.4180  -25.0590   56.1030 C   0  0  0  0  0  0  0  0  0  0  0  0
  -22.3560  -24.0980   56.5470 C   0  0  0  0  0  0  0  0  0  0  0  0
  -20.9170  -24.5210   56.5540 C   0  0  0  0  0  0  0  0  0  0  0  0
  -20.5400  -25.9070   56.1180 C   0  0  0  0  0  0  0  0  0  0  0  0
  -23.7730  -27.1060   55.3620 H   0  0  0  0  0  0  0  0  0  0  0  0
  -24.4080  -24.7680   56.0980 H   0  0  0  0  0  0  0  0  0  0  0  0
  -22.6160  -23.1450   56.8470 H   0  0  0  0  0  0  0  0  0  0  0  0
  -20.1860  -23.8600   56.8590 H   0  0  0  0  0  0  0  0  0  0  0  0
  -19.5510  -26.1980   56.1230 H   0  0  0  0  0  0  0  0  0  0  0  0
  -15.1260  -32.6540   58.2530 O   0  0  0  0  0  0  0  0  0  0  0  0
  -13.6460  -32.8950   58.2900 C   0  0  0  0  0  0  0  0  0  0  0  0
  -13.0020  -32.3740   57.6130 H   0  0  0  0  0  0  0  0  0  0  0  0
  -13.2340  -33.5880   58.9940 H   0  0  0  0  0  0  0  0  0  0  0  0
  -12.5900  -33.0670   58.3160 H   0  0  0  0  0  0  0  0  0  0  0  0
  -14.8360  -28.1520   55.6750 O   0  0  0  0  0  0  0  0  0  0  0  0
  -15.5720  -26.8460   55.7220 C   0  0  0  0  0  0  0  0  0  0  0  0
  -16.6130  -26.8270   55.9720 H   0  0  0  0  0  0  0  0  0  0  0  0
  -15.0570  -25.9330   55.5060 H   0  0  0  0  0  0  0  0  0  0  0  0
  -16.0980  -25.9140   55.7560 H   0  0  0  0  0  0  0  0  0  0  0  0
  1 29  1  0
  2  7  1  0
  2  1  2  0
  3  2  1  0
  4  3  2  0
  4  5  1  0
  5  6  2  0
  6  1  1  0
  6  9  1  0
  8  4  1  0
 10  3  1  0
 11 10  1  0
 11 15  1  0
 12 13  1  0
 12 11  2  0
 13 14  2  0
 14 15  1  0
 14 18  1  0
 16 10  1  0
 17 13  1  0
 18 23  1  0
 19 18  2  0
 19 20  1  0
 20 21  2  0
 21 22  1  0
 21 26  1  0
 22 27  1  0
 23 28  1  0
 23 22  2  0
 24 19  1  0
 25 20  1  0
 29 30  1  0
 30 33  1  0
 30 32  1  0
 31 30  1  0
 34 35  1  0
 34  5  1  0
 35 38  1  0
 35 36  1  0
 37 35  1  0
M  END
>  <minimizedAffinity>  (143) 
-7.58360052

$$$$

     RDKit          3D

 58 56  0  0  0  0  0  0  0  0999 V2000
  -20.5070  -28.0540   55.4110 N   0  0  0  0  0 15  0  0  0  0  0  0
  -20.5520  -26.6030   55.7900 C   0  0  0  0  0  2  0  0  0  0  0  0
  -19.1400  -26.1050   55.8920 N   0  0  0  0  0  2  0  0  0  0  0  0
  -18.2220  -27.2490   55.5750 C   0  0  0  0  0  0  0  0  0  0  0  0
  -16.7270  -27.3500   55.5190 C   0  0  0  0  0  0  0  0  0  0  0  0
  -16.0760  -28.6540   55.1660 N   0  0  0  0  0  2  0  0  0  0  0  0
  -16.9200  -29.8580   54.8680 C   0  0  0  0  0  0  0  0  0  0  0  0
  -18.4150  -29.7570   54.9240 C   0  0  0  0  0  0  0  0  0  0  0  0
  -19.0670  -28.4530   55.2780 C   0  0  0  0  0  3  0  0  0  0  0  0
  -18.9960  -30.5850   54.7200 H   0  0  0  0  0  0  0  0  0  0  0  0
  -21.7910  -25.7920   56.0270 C   0  0  0  0  0  0  0  0  0  0  0  0
  -23.2010  -26.3050   55.9930 N   0  0  0  0  0  0  0  0  0  0  0  0
  -24.1200  -25.1550   56.2840 O   0  0  0  0  0  0  0  0  0  0  0  0
  -23.2780  -23.9320   56.4980 N   0  0  0  0  0  0  0  0  0  0  0  0
  -21.8390  -24.3250   56.3390 C   0  0  0  0  0  0  0  0  0  0  0  0
  -20.6570  -23.4120   56.4690 N   0  0  0  0  0  0  0  0  0  0  0  0
  -19.7460  -23.7660   56.3460 H   0  0  0  0  0  0  0  0  0  0  0  0
  -20.7900  -22.4600   56.6770 H   0  0  0  0  0  0  0  0  0  0  0  0
  -21.6920  -28.9480   55.2010 C   0  0  0  0  0  3  0  0  0  0  0  0
  -22.1340  -29.4550   56.0340 H   0  0  0  0  0  0  0  0  0  0  0  0
  -21.2880  -28.8170   56.1830 H   0  0  0  0  0  0  0  0  0  0  0  0
  -22.2600  -29.1310   53.8250 C   0  0  0  0  0  0  0  0  0  0  0  0
  -21.8180  -28.6240   52.9930 H   0  0  0  0  0  0  0  0  0  0  0  0
  -23.1050  -29.7690   53.6750 H   0  0  0  0  0  0  0  0  0  0  0  0
  -22.6640  -29.2620   52.8430 H   0  0  0  0  0  0  0  0  0  0  0  0
  -15.8820  -26.1460   55.8160 C   0  0  0  0  0  0  0  0  0  0  0  0
  -15.0380  -24.9430   56.1140 C   0  0  0  0  0  0  0  0  0  0  0  0
  -14.1940  -23.7390   56.4110 C   0  0  0  0  0  0  0  0  0  0  0  0
  -14.4410  -23.2230   55.0250 C   0  0  0  0  0  0  0  0  0  0  0  0
  -15.0520  -23.7820   54.3460 H   0  0  0  0  0  0  0  0  0  0  0  0
  -14.0080  -22.2950   54.7140 H   0  0  0  0  0  0  0  0  0  0  0  0
  -14.6180  -22.8540   54.0360 H   0  0  0  0  0  0  0  0  0  0  0  0
  -13.9460  -24.2550   57.7980 C   0  0  0  0  0  0  0  0  0  0  0  0
  -13.3360  -23.6950   58.4760 H   0  0  0  0  0  0  0  0  0  0  0  0
  -14.3800  -25.1830   58.1080 H   0  0  0  0  0  0  0  0  0  0  0  0
  -13.7700  -24.6230   58.7870 H   0  0  0  0  0  0  0  0  0  0  0  0
  -13.3500  -22.5350   56.7080 O   0  0  0  0  0  0  0  0  0  0  0  0
  -13.2150  -21.8570   56.0280 H   0  0  0  0  0  0  0  0  0  0  0  0
  -16.2690  -31.1620   54.5150 O   0  0  0  0  0  0  0  0  0  0  0  0
  -15.1140  -31.6680   55.3280 C   0  0  0  0  0  2  0  0  0  0  0  0
  -14.1150  -31.5690   54.9580 H   0  0  0  0  0  0  0  0  0  0  0  0
  -14.2910  -32.0300   55.9080 H   0  0  0  0  0  0  0  0  0  0  0  0
  -15.3600  -32.3130   56.6590 C   0  0  0  0  0  3  0  0  0  0  0  0
  -16.0710  -32.4320   55.8690 H   0  0  0  0  0  0  0  0  0  0  0  0
  -14.3640  -32.1480   57.7680 C   0  0  0  0  0  0  0  0  0  0  0  0
  -13.1300  -32.9990   57.8010 C   0  0  0  0  0  0  0  0  0  0  0  0
  -12.1340  -32.8340   58.9100 C   0  0  0  0  0  0  0  0  0  0  0  0
  -12.3720  -31.8170   59.9870 C   0  0  0  0  0  0  0  0  0  0  0  0
  -13.6070  -30.9650   59.9540 C   0  0  0  0  0  0  0  0  0  0  0  0
  -14.6030  -31.1310   58.8450 C   0  0  0  0  0  0  0  0  0  0  0  0
  -12.9660  -33.6990   57.0600 H   0  0  0  0  0  0  0  0  0  0  0  0
  -11.2840  -33.4190   58.9330 H   0  0  0  0  0  0  0  0  0  0  0  0
  -11.6870  -31.7020   60.7500 H   0  0  0  0  0  0  0  0  0  0  0  0
  -13.7710  -30.2650   60.6950 H   0  0  0  0  0  0  0  0  0  0  0  0
  -15.4520  -30.5450   58.8220 H   0  0  0  0  0  0  0  0  0  0  0  0
  -16.6030  -33.1240   56.8820 N   0  0  0  0  0  0  0  0  0  0  0  0
  -16.7700  -33.5630   57.7880 H   0  0  0  0  0  0  0  0  0  0  0  0
  -17.2800  -33.2370   56.1280 H   0  0  0  0  0  0  0  0  0  0  0  0
  2  3  1  0
  2 11  1  0
  4  3  1  0
  5  4  2  0
  5 26  1  0
  6  5  1  0
  7  8  1  0
  7  6  1  0
  8  9  2  0
  9  4  1  0
 10  8  1  0
 11 15  1  0
 12 11  2  0
 12 13  1  0
 13 14  1  0
 15 16  1  0
 15 14  2  0
 16 18  1  0
 17 16  1  0
 19 20  1  0
 19 21  1  0
 22 19  1  0
 23 22  1  0
 24 22  1  0
 25 22  1  0
 26 27  3  0
 27 28  1  0
 28 37  1  0
 28 33  1  0
 29 28  1  0
 30 29  1  0
 31 29  1  0
 32 29  1  0
 33 35  1  0
 33 34  1  0
 33 36  1  0
 38 37  1  0
 39  7  2  0
 40 42  1  0
 41 40  1  0
 43 56  1  0
 43 45  1  0
 44 43  1  0
 45 46  2  0
 45 50  1  0
 46 47  1  0
 47 52  1  0
 47 48  2  0
 48 53  1  0
 49 48  1  0
 49 54  1  0
 50 49  2  0
 51 46  1  0
 55 50  1  0
 56 57  1  0
 58 56  1  0
M  END
>  <minimizedAffinity>  (144) 
-10.5664434

$$$$

     RDKit          3D

 36 35  0  0  0  0  0  0  0  0999 V2000
  -12.9410  -30.7960   55.4900 O   0  0  0  0  0  1  0  0  0  0  0  0
  -14.0320  -31.8240   55.5430 C   0  0  0  0  0  2  0  0  0  0  0  0
  -15.4660  -31.3930   55.6290 N   0  0  0  0  0  0  0  0  0  0  0  0
  -15.8090  -29.9340   55.6630 C   0  0  0  0  0  0  0  0  0  0  0  0
  -14.8320  -28.7960   55.6170 N   0  0  0  0  0  0  0  0  0  0  0  0
  -15.6080  -27.5140   55.6740 N   0  0  0  0  0  0  0  0  0  0  0  0
  -17.0660  -27.8590   55.7540 C   0  0  0  0  0  0  0  0  0  0  0  0
  -18.2970  -27.0050   55.8330 C   0  0  0  0  0  0  0  0  0  0  0  0
  -19.6510  -27.6450   55.9050 C   0  0  0  0  0  0  0  0  0  0  0  0
  -19.7750  -29.1400   55.8980 C   0  0  0  0  0  0  0  0  0  0  0  0
  -18.5440  -29.9940   55.8190 C   0  0  0  0  0  0  0  0  0  0  0  0
  -17.1900  -29.3540   55.7470 C   0  0  0  0  0  0  0  0  0  0  0  0
  -16.1820  -32.0680   55.6640 H   0  0  0  0  0  0  0  0  0  0  0  0
  -15.2280  -26.6060   55.6600 H   0  0  0  0  0  0  0  0  0  0  0  0
  -18.2110  -25.9760   55.8370 H   0  0  0  0  0  0  0  0  0  0  0  0
  -20.7070  -29.5810   55.9470 H   0  0  0  0  0  0  0  0  0  0  0  0
  -18.6300  -31.0230   55.8150 H   0  0  0  0  0  0  0  0  0  0  0  0
  -20.8810  -26.7910   55.9830 C   0  0  0  0  0  0  0  0  0  0  0  0
  -22.2120  -27.3540   55.5810 C   0  0  0  0  0  0  0  0  0  0  0  0
  -23.4430  -26.5000   55.6600 C   0  0  0  0  0  0  0  0  0  0  0  0
  -23.3420  -25.0830   56.1400 C   0  0  0  0  0  0  0  0  0  0  0  0
  -24.5730  -24.2280   56.2190 F   0  0  0  0  0  0  0  0  0  0  0  0
  -22.0110  -24.5190   56.5420 C   0  0  0  0  0  0  0  0  0  0  0  0
  -20.7810  -25.3740   56.4640 C   0  0  0  0  0  0  0  0  0  0  0  0
  -22.2810  -28.3300   55.2510 H   0  0  0  0  0  0  0  0  0  0  0  0
  -24.3580  -26.8880   55.3840 H   0  0  0  0  0  0  0  0  0  0  0  0
  -21.9420  -23.5440   56.8730 H   0  0  0  0  0  0  0  0  0  0  0  0
  -19.8650  -24.9860   56.7400 H   0  0  0  0  0  0  0  0  0  0  0  0
  -13.6880  -33.2850   55.5100 C   0  0  0  0  0 15  0  0  0  0  0  0
  -13.1170  -34.4680   54.7870 C   0  0  0  0  0  3  0  0  0  0  0  0
  -13.6640  -34.6280   56.1750 C   0  0  0  0  0  2  0  0  0  0  0  0
  -13.4430  -34.3250   55.4860 H   0  0  0  0  0  0  0  0  0  0  0  0
  -12.6580  -34.8900   53.9190 H   0  0  0  0  0  0  0  0  0  0  0  0
  -12.9820  -35.5040   55.0210 H   0  0  0  0  0  0  0  0  0  0  0  0
  -13.8790  -35.2480   57.0210 H   0  0  0  0  0  0  0  0  0  0  0  0
  -14.1130  -33.9730   56.8910 H   0  0  0  0  0  0  0  0  0  0  0  0
  1  2  1  0
  2  3  1  0
  3  4  1  0
  3 13  1  0
  4 12  1  0
  5  4  2  0
  5  6  1  0
  6  7  1  0
  7  8  1  0
  8 15  1  0
  8  9  2  0
  9 18  1  0
 10  9  1  0
 10 16  1  0
 11 10  2  0
 12  7  2  0
 12 11  1  0
 14  6  1  0
 17 11  1  0
 18 24  1  0
 19 20  1  0
 19 18  2  0
 20 21  2  0
 21 22  1  0
 21 23  1  0
 23 27  1  0
 24 23  2  0
 24 28  1  0
 25 19  1  0
 26 20  1  0
 30 34  1  0
 30 32  1  0
 31 36  1  0
 31 35  1  0
 33 30  1  0
M  END
>  <minimizedAffinity>  (145) 
-8.94167709

$$$$

     RDKit          3D

 43 46  0  0  0  0  0  0  0  0999 V2000
  -23.9290  -25.7550   55.8340 C   0  0  0  0  0  0  0  0  0  0  0  0
  -25.4050  -25.8800   56.0710 C   0  0  0  0  0  0  0  0  0  0  0  0
  -26.1290  -27.1270   55.6550 C   0  0  0  0  0  0  0  0  0  0  0  0
  -25.3760  -28.2480   55.0030 C   0  0  0  0  0  0  0  0  0  0  0  0
  -23.9000  -28.1230   54.7660 C   0  0  0  0  0  0  0  0  0  0  0  0
  -23.1770  -26.8770   55.1810 C   0  0  0  0  0  0  0  0  0  0  0  0
  -25.9230  -25.1090   56.5200 H   0  0  0  0  0  0  0  0  0  0  0  0
  -25.8740  -29.1060   54.7160 H   0  0  0  0  0  0  0  0  0  0  0  0
  -27.6050  -27.2520   55.8920 C   0  0  0  0  0  0  0  0  0  0  0  0
  -28.6480  -27.5010   54.8440 C   0  0  0  0  0  0  0  0  0  0  0  0
  -29.9840  -27.5530   55.5230 C   0  0  0  0  0  0  0  0  0  0  0  0
  -29.7670  -27.3360   56.9910 C   0  0  0  0  0  0  0  0  0  0  0  0
  -28.2960  -27.1510   57.2190 O   0  0  0  0  0  0  0  0  0  0  0  0
  -28.4760  -27.6160   53.8320 H   0  0  0  0  0  0  0  0  0  0  0  0
  -30.8930  -27.7100   55.0610 H   0  0  0  0  0  0  0  0  0  0  0  0
  -30.5010  -27.3190   57.7160 H   0  0  0  0  0  0  0  0  0  0  0  0
  -23.2060  -24.5090   56.2500 C   0  0  0  0  0  0  0  0  0  0  0  0
  -23.7430  -23.7090   56.7160 H   0  0  0  0  0  0  0  0  0  0  0  0
  -22.1530  -24.4200   56.0810 H   0  0  0  0  0  0  0  0  0  0  0  0
  -22.6900  -23.6200   56.5470 H   0  0  0  0  0  0  0  0  0  0  0  0
  -23.1480  -29.2450   54.1130 C   0  0  0  0  0  0  0  0  0  0  0  0
  -22.0950  -29.1560   53.9440 H   0  0  0  0  0  0  0  0  0  0  0  0
  -23.6640  -30.1340   53.8160 H   0  0  0  0  0  0  0  0  0  0  0  0
  -22.6110  -30.0450   53.6470 H   0  0  0  0  0  0  0  0  0  0  0  0
  -21.7010  -26.7520   54.9450 C   0  0  0  0  0  0  0  0  0  0  0  0
  -20.7310  -27.2860   55.9570 C   0  0  0  0  0  0  0  0  0  0  0  0
  -21.3530  -26.2980   54.0850 H   0  0  0  0  0  0  0  0  0  0  0  0
  -21.0790  -27.7390   56.8160 H   0  0  0  0  0  0  0  0  0  0  0  0
  -19.2550  -27.1610   55.7200 C   0  0  0  0  0  0  0  0  0  0  0  0
  -18.6280  -25.8040   55.5930 C   0  0  0  0  0  0  0  0  0  0  0  0
  -17.1520  -25.6790   55.3560 N   0  0  0  0  0  0  0  0  0  0  0  0
  -16.3040  -26.9100   55.2460 C   0  0  0  0  0  0  0  0  0  0  0  0
  -16.9310  -28.2670   55.3720 C   0  0  0  0  0  0  0  0  0  0  0  0
  -18.4060  -28.3920   55.6090 C   0  0  0  0  0  0  0  0  0  0  0  0
  -19.2130  -24.9560   55.6690 H   0  0  0  0  0  0  0  0  0  0  0  0
  -15.2880  -26.8240   55.0830 H   0  0  0  0  0  0  0  0  0  0  0  0
  -18.8380  -29.3260   55.6960 H   0  0  0  0  0  0  0  0  0  0  0  0
  -16.0820  -29.4990   55.2620 C   0  0  0  0  0  0  0  0  0  0  0  0
  -14.7210  -29.6890   55.8640 N   0  0  0  0  0  0  0  0  0  0  0  0
  -14.2420  -31.0640   55.5040 N   0  0  0  0  0  2  0  0  0  0  0  0
  -15.3080  -31.7240   54.6800 N   0  0  0  0  0  0  0  0  0  0  0  0
  -16.4440  -30.7580   54.5300 N   0  0  0  0  0  2  0  0  0  0  0  0
  -15.2680  -32.6330   54.3030 H   0  0  0  0  0  0  0  0  0  0  0  0
  1  2  1  0
  1 17  1  0
  2  7  1  0
  3  9  1  0
  3  2  2  0
  4  3  1  0
  5  4  2  0
  5  6  1  0
  6  1  2  0
  8  4  1  0
  9 13  1  0
 10 11  1  0
 10  9  2  0
 11 12  2  0
 12 13  1  0
 12 16  1  0
 14 10  1  0
 15 11  1  0
 17 20  1  0
 17 18  1  0
 19 17  1  0
 21  5  1  0
 22 21  1  0
 23 21  1  0
 24 21  1  0
 25  6  1  0
 25 26  2  0
 26 28  1  0
 27 25  1  0
 29 26  1  0
 30 35  1  0
 30 29  2  0
 31 30  1  0
 32 31  2  0
 32 33  1  0
 33 34  2  0
 34 37  1  0
 34 29  1  0
 36 32  1  0
 38 33  1  0
 38 39  2  0
 40 39  1  0
 41 40  1  0
 42 41  1  0
 42 38  1  0
 43 41  1  0
M  END
>  <minimizedAffinity>  (146) 
-9.38409138

$$$$

     RDKit          3D

 41 44  0  0  0  0  0  0  0  0999 V2000
  -26.2270  -25.9180   55.8810 N   0  0  0  0  0  0  0  0  0  0  0  0
  -24.7470  -26.1370   55.7720 C   0  0  0  0  0  0  0  0  0  0  0  0
  -23.7970  -25.0360   56.1390 N   0  0  0  0  0  0  0  0  0  0  0  0
  -22.3170  -25.2550   56.0300 C   0  0  0  0  0  0  0  0  0  0  0  0
  -21.7870  -26.5750   55.5540 C   0  0  0  0  0  0  0  0  0  0  0  0
  -22.7370  -27.6750   55.1870 C   0  0  0  0  0  0  0  0  0  0  0  0
  -22.5100  -29.0730   54.6890 S   0  0  0  0  0  0  0  0  0  0  0  0
  -23.8510  -29.7180   54.4910 C   0  0  0  0  0  0  0  0  0  0  0  0
  -24.9050  -28.7190   54.8660 C   0  0  0  0  0  0  0  0  0  0  0  0
  -24.2170  -27.4570   55.2950 C   0  0  0  0  0  0  0  0  0  0  0  0
  -26.5740  -25.0520   56.1930 H   0  0  0  0  0  0  0  0  0  0  0  0
  -26.8500  -26.6410   55.6390 H   0  0  0  0  0  0  0  0  0  0  0  0
  -21.6630  -24.4970   56.2830 H   0  0  0  0  0  0  0  0  0  0  0  0
  -24.0170  -30.6790   54.1560 H   0  0  0  0  0  0  0  0  0  0  0  0
  -26.3880  -28.9420   54.8180 C   0  0  0  0  0  0  0  0  0  0  0  0
  -27.1490  -29.1920   56.0860 C   0  0  0  0  0  0  0  0  0  0  0  0
  -28.6320  -29.4160   56.0400 C   0  0  0  0  0  0  0  0  0  0  0  0
  -29.3530  -29.3900   54.7250 C   0  0  0  0  0  0  0  0  0  0  0  0
  -30.8350  -29.6130   54.6770 F   0  0  0  0  0  0  0  0  0  0  0  0
  -28.5910  -29.1400   53.4570 C   0  0  0  0  0  0  0  0  0  0  0  0
  -29.3120  -29.1140   52.1420 Cl  0  0  0  0  0  0  0  0  0  0  0  0
  -27.1080  -28.9160   53.5040 C   0  0  0  0  0  0  0  0  0  0  0  0
  -26.6530  -29.2100   56.9920 H   0  0  0  0  0  0  0  0  0  0  0  0
  -29.1550  -29.5870   56.9110 H   0  0  0  0  0  0  0  0  0  0  0  0
  -26.5840  -28.7450   52.6310 H   0  0  0  0  0  0  0  0  0  0  0  0
  -20.3070  -26.7940   55.4450 C   0  0  0  0  0  0  0  0  0  0  0  0
  -19.3660  -26.0190   56.3190 C   0  0  0  0  0  0  0  0  0  0  0  0
  -17.8870  -26.2390   56.2100 C   0  0  0  0  0  0  0  0  0  0  0  0
  -17.3480  -27.2340   55.2260 C   0  0  0  0  0  0  0  0  0  0  0  0
  -18.2880  -28.0100   54.3510 C   0  0  0  0  0  0  0  0  0  0  0  0
  -19.7670  -27.7900   54.4610 C   0  0  0  0  0  0  0  0  0  0  0  0
  -19.7380  -25.3340   56.9960 H   0  0  0  0  0  0  0  0  0  0  0  0
  -17.2400  -25.7050   56.8110 H   0  0  0  0  0  0  0  0  0  0  0  0
  -16.3300  -27.3850   55.1510 H   0  0  0  0  0  0  0  0  0  0  0  0
  -20.4140  -28.3230   53.8590 H   0  0  0  0  0  0  0  0  0  0  0  0
  -17.7480  -29.0050   53.3680 S   0  0  2  0  0  0  0  0  0  0  0  0
  -18.9760  -28.8350   52.5220 O   0  0  0  0  0  0  0  0  0  0  0  0
  -16.5210  -29.1750   54.2130 O   0  0  0  0  0  0  0  0  0  0  0  0
  -17.2090  -30.0000   52.3840 N   0  0  0  0  0  0  0  0  0  0  0  0
  -17.7480  -30.2390   51.5510 H   0  0  0  0  0  0  0  0  0  0  0  0
  -16.3020  -30.4390   52.5470 H   0  0  0  0  0  0  0  0  0  0  0  0
  1 11  1  0
  2  1  1  0
  2  3  1  0
  4  3  2  0
  4 13  1  0
  5  4  1  0
  6 10  1  0
  6  5  2  0
  7  6  1  0
  8  7  1  0
  8  9  2  0
  9 10  1  0
 10  2  2  0
 12  1  1  0
 14  8  1  0
 15  9  1  0
 15 16  1  0
 16 23  1  0
 17 16  2  0
 17 24  1  0
 18 17  1  0
 19 18  1  0
 20 22  1  0
 20 18  2  0
 21 20  1  0
 22 15  2  0
 25 22  1  0
 26  5  1  0
 26 27  1  0
 27 32  1  0
 28 27  2  0
 28 33  1  0
 29 28  1  0
 30 31  1  0
 30 29  2  0
 31 26  2  0
 34 29  1  0
 35 31  1  0
 36 38  2  0
 36 30  1  0
 37 36  2  0
 39 41  1  0
 39 36  1  0
 40 39  1  0
M  END
>  <minimizedAffinity>  (147) 
-8.9676342

$$$$

     RDKit          3D

 69 63  0  0  0  0  0  0  0  0999 V2000
  -20.0780  -27.0160   55.6490 C   0  0  0  0  0  0  0  0  0  0  0  0
  -19.1980  -25.8420   55.9640 C   0  0  0  0  0  0  0  0  0  0  0  0
  -17.7710  -26.2890   55.8470 C   0  0  0  0  0  0  0  0  0  0  0  0
  -16.4730  -25.5620   56.0440 N   0  0  0  0  0  0  0  0  0  0  0  0
  -15.1730  -26.2860   55.8530 C   0  0  0  0  0  0  0  0  0  0  0  0
  -15.1700  -27.7350   55.4670 N   0  0  0  0  0  0  0  0  0  0  0  0
  -16.4680  -28.4610   55.2700 C   0  0  0  0  0  0  0  0  0  0  0  0
  -17.7680  -27.7380   55.4610 C   0  0  0  0  0  0  0  0  0  0  0  0
  -19.1950  -28.1880   55.3380 S   0  0  0  0  0  0  0  0  0  0  0  0
  -19.5190  -24.8940   56.2160 H   0  0  0  0  0  0  0  0  0  0  0  0
  -14.2800  -25.7860   55.9880 H   0  0  0  0  0  0  0  0  0  0  0  0
  -23.0770  -27.0190   55.6420 C   0  0  0  0  0  1  0  0  0  0  0  0
  -21.5770  -27.0170   55.6450 C   0  0  0  0  0  2  0  0  0  0  0  0
  -26.8850  -27.7540   55.4670 C   0  0  0  0  0  1  0  0  0  0  0  0
  -26.8880  -26.2910   55.7990 C   0  0  0  0  0  2  0  0  0  0  0  0
  -25.4610  -25.8370   55.9050 N   0  0  0  0  0  1  0  0  0  0  0  0
  -24.5770  -27.0200   55.6380 C   0  0  0  0  0  2  0  0  0  0  0  0
  -25.4580  -28.2050   55.3680 C   0  0  0  0  0  3  0  0  0  0  0  0
  -27.8390  -27.2810   55.5720 H   0  0  0  0  0  0  0  0  0  0  0  0
  -27.7540  -25.6790   55.9360 H   0  0  0  0  0  0  0  0  0  0  0  0
  -26.7210  -25.2600   56.0330 H   0  0  0  0  0  0  0  0  0  0  0  0
  -25.1480  -24.8910   56.1200 H   0  0  0  0  0  0  0  0  0  0  0  0
  -24.0940  -26.0900   55.8500 H   0  0  0  0  0  0  0  0  0  0  0  0
  -25.1250  -29.1970   55.1430 H   0  0  0  0  0  0  0  0  0  0  0  0
  -26.2130  -28.9430   55.1990 H   0  0  0  0  0  0  0  0  0  0  0  0
  -28.0970  -28.6160   55.2690 O   0  0  0  0  0  1  0  0  0  0  0  0
  -28.9730  -28.5870   52.8230 O   0  0  0  0  0  0  0  0  0  0  0  0
  -28.3150  -29.3130   53.9590 C   0  0  0  0  0  0  0  0  0  0  0  0
  -27.8750  -30.7360   53.7840 N   0  0  0  0  0  2  0  0  0  0  0  0
  -28.0930  -31.4330   52.4740 C   0  0  0  0  0  3  0  0  0  0  0  0
  -27.6520  -32.8570   52.3000 C   0  0  0  0  0  2  0  0  0  0  0  0
  -26.9940  -33.5830   53.4350 O   0  0  0  0  0 15  0  0  0  0  0  0
  -26.7760  -32.8860   54.7450 C   0  0  0  0  0  2  0  0  0  0  0  0
  -27.2160  -31.4620   54.9200 C   0  0  0  0  0  2  0  0  0  0  0  0
  -28.5620  -30.9150   51.6640 H   0  0  0  0  0  0  0  0  0  0  0  0
  -28.2480  -31.9310   51.5390 H   0  0  0  0  0  0  0  0  0  0  0  0
  -27.8080  -33.3540   51.3650 H   0  0  0  0  0  0  0  0  0  0  0  0
  -27.3380  -33.8720   52.1760 H   0  0  0  0  0  0  0  0  0  0  0  0
  -26.3060  -33.4030   55.5550 H   0  0  0  0  0  0  0  0  0  0  0  0
  -26.6210  -32.3880   55.6800 H   0  0  0  0  0  0  0  0  0  0  0  0
  -27.0610  -30.9650   55.8540 H   0  0  0  0  0  0  0  0  0  0  0  0
  -27.5310  -30.4460   55.0450 H   0  0  0  0  0  0  0  0  0  0  0  0
  -16.4660  -29.9110   54.8840 N   0  0  0  0  0  0  0  0  0  0  0  0
  -17.0110  -30.2180   54.1240 H   0  0  0  0  0  0  0  0  0  0  0  0
  -15.6320  -30.8910   55.6550 C   0  0  0  0  0  0  0  0  0  0  0  0
  -15.2320  -32.1930   55.0260 C   0  0  0  0  0  0  0  0  0  0  0  0
  -14.3980  -33.1730   55.7960 C   0  0  0  0  0  0  0  0  0  0  0  0
  -13.9650  -32.8520   57.1960 C   0  0  0  0  0  0  0  0  0  0  0  0
  -14.3650  -31.5500   57.8250 C   0  0  0  0  0  0  0  0  0  0  0  0
  -13.9310  -31.2290   59.2240 Cl  0  0  0  0  0  0  0  0  0  0  0  0
  -15.1980  -30.5700   57.0540 C   0  0  0  0  0  0  0  0  0  0  0  0
  -15.5300  -32.4140   54.0630 H   0  0  0  0  0  0  0  0  0  0  0  0
  -14.1230  -34.0690   55.3640 H   0  0  0  0  0  0  0  0  0  0  0  0
  -15.4740  -29.6740   57.4870 H   0  0  0  0  0  0  0  0  0  0  0  0
  -13.1310  -33.8320   57.9660 O   0  0  0  0  0  0  0  0  0  0  0  0
  -11.6460  -33.8770   57.7620 C   0  0  0  0  0  0  0  0  0  0  0  0
  -11.1450  -34.8200   57.6850 H   0  0  0  0  0  0  0  0  0  0  0  0
  -10.5860  -33.9090   57.6160 H   0  0  0  0  0  0  0  0  0  0  0  0
  -10.8630  -32.6020   57.6650 C   0  0  0  0  0  0  0  0  0  0  0  0
  -10.5390  -32.0200   56.3210 C   0  0  0  0  0  0  0  0  0  0  0  0
   -9.7560  -30.7450   56.2240 C   0  0  0  0  0  0  0  0  0  0  0  0
   -9.2970  -30.0500   57.4720 C   0  0  0  0  0  0  0  0  0  0  0  0
   -9.6210  -30.6310   58.8160 C   0  0  0  0  0  0  0  0  0  0  0  0
   -9.1610  -29.9370   60.0640 F   0  0  0  0  0  0  0  0  0  0  0  0
  -10.4040  -31.9070   58.9130 C   0  0  0  0  0  0  0  0  0  0  0  0
  -10.8550  -32.4980   55.4620 H   0  0  0  0  0  0  0  0  0  0  0  0
   -9.5330  -30.3450   55.2990 H   0  0  0  0  0  0  0  0  0  0  0  0
   -8.7580  -29.1720   57.4050 H   0  0  0  0  0  0  0  0  0  0  0  0
  -10.6270  -32.3070   59.8380 H   0  0  0  0  0  0  0  0  0  0  0  0
  1  2  2  0
  2 10  1  0
  3  2  1  0
  3  4  1  0
  5 11  1  0
  5  4  2  0
  6  5  1  0
  7  8  1  0
  7  6  2  0
  8  3  2  0
  9  8  1  0
  9  1  1  0
 12 13  1  0
 13  1  1  0
 14 19  1  0
 15 20  1  0
 15 21  1  0
 16 22  1  0
 17 23  1  0
 18 17  1  0
 24 18  1  0
 25 18  1  0
 27 28  2  0
 28 26  1  0
 29 28  1  0
 30 29  1  0
 33 39  1  0
 33 40  1  0
 34 42  1  0
 34 41  1  0
 35 30  1  0
 36 30  1  0
 37 31  1  0
 38 31  1  0
 43  7  1  0
 43 45  1  0
 44 43  1  0
 45 51  1  0
 46 45  2  0
 46 47  1  0
 47 48  2  0
 48 49  1  0
 48 55  1  0
 49 50  1  0
 51 54  1  0
 51 49  2  0
 52 46  1  0
 53 47  1  0
 56 55  1  0
 57 56  1  0
 58 56  1  0
 59 56  1  0
 59 65  1  0
 60 59  2  0
 61 60  1  0
 61 62  2  0
 62 63  1  0
 63 65  2  0
 63 64  1  0
 65 69  1  0
 66 60  1  0
 67 61  1  0
 68 62  1  0
M  END
>  <minimizedAffinity>  (148) 
-11.4454098

$$$$

     RDKit          3D

 28 27  0  0  0  0  0  0  0  0999 V2000
  -18.9720  -27.0580   55.6720 N   0  0  0  0  0 15  0  0  0  0  0  0
  -19.1410  -28.3080   54.8600 C   0  0  0  0  0  2  0  0  0  0  0  0
  -20.5880  -28.4260   54.4840 N   0  0  0  0  0  2  0  0  0  0  0  0
  -21.3140  -27.2480   55.0640 C   0  0  0  0  0  0  0  0  0  0  0  0
  -22.7560  -26.8370   55.0180 C   0  0  0  0  0  0  0  0  0  0  0  0
  -23.2000  -25.5800   55.7060 C   0  0  0  0  0  0  0  0  0  0  0  0
  -22.2010  -24.7350   56.4400 C   0  0  0  0  0  0  0  0  0  0  0  0
  -22.6450  -23.4780   57.1280 F   0  0  0  0  0  0  0  0  0  0  0  0
  -20.7590  -25.1460   56.4860 C   0  0  0  0  0  0  0  0  0  0  0  0
  -20.3160  -26.4030   55.7980 C   0  0  0  0  0  3  0  0  0  0  0  0
  -23.4430  -27.4190   54.5130 H   0  0  0  0  0  0  0  0  0  0  0  0
  -24.1920  -25.2970   55.6750 H   0  0  0  0  0  0  0  0  0  0  0  0
  -20.0730  -24.5640   56.9910 H   0  0  0  0  0  0  0  0  0  0  0  0
  -18.0520  -29.2710   54.4890 C   0  0  0  0  0  0  0  0  0  0  0  0
  -16.9400  -29.7330   55.3840 N   0  0  0  0  0  0  0  0  0  0  0  0
  -16.0850  -30.6890   54.6060 O   0  0  0  0  0  0  0  0  0  0  0  0
  -16.6680  -30.8180   53.2300 N   0  0  0  0  0  0  0  0  0  0  0  0
  -17.8840  -29.9420   53.1570 C   0  0  0  0  0  0  0  0  0  0  0  0
  -18.7750  -29.7670   51.9640 N   0  0  0  0  0  0  0  0  0  0  0  0
  -19.5530  -29.1670   52.0140 H   0  0  0  0  0  0  0  0  0  0  0  0
  -18.5820  -30.2530   51.1300 H   0  0  0  0  0  0  0  0  0  0  0  0
  -17.6870  -26.5510   56.2550 C   0  0  0  0  0  3  0  0  0  0  0  0
  -17.5090  -26.6280   57.3080 H   0  0  0  0  0  0  0  0  0  0  0  0
  -18.4270  -26.9900   56.8910 H   0  0  0  0  0  0  0  0  0  0  0  0
  -16.6490  -25.9360   55.3640 C   0  0  0  0  0  0  0  0  0  0  0  0
  -16.8260  -25.8590   54.3110 H   0  0  0  0  0  0  0  0  0  0  0  0
  -15.7330  -25.5750   55.7800 H   0  0  0  0  0  0  0  0  0  0  0  0
  -15.9090  -25.4970   54.7280 H   0  0  0  0  0  0  0  0  0  0  0  0
  3  2  1  0
  3  4  1  0
  4 10  1  0
  5  4  2  0
  5  6  1  0
  6  7  2  0
  7  9  1  0
  7  8  1  0
  9 13  1  0
 10  9  2  0
 11  5  1  0
 12  6  1  0
 14  2  1  0
 14 15  2  0
 16 15  1  0
 17 16  1  0
 18 17  2  0
 18 14  1  0
 19 20  1  0
 19 18  1  0
 21 19  1  0
 22 24  1  0
 22 23  1  0
 25 27  1  0
 25 22  1  0
 26 25  1  0
 28 25  1  0
M  END
>  <minimizedAffinity>  (149) 
-7.73024559

$$$$

     RDKit          3D

 34 37  0  0  0  0  0  0  0  0999 V2000
  -26.3990  -30.5440   53.0840 N   0  0  0  0  0  0  0  0  0  0  0  0
  -25.1540  -29.8310   53.5210 C   0  0  0  0  0  0  0  0  0  0  0  0
  -25.0980  -28.5230   54.2550 N   0  0  0  0  0  0  0  0  0  0  0  0
  -23.6560  -28.1840   54.4880 C   0  0  0  0  0  0  0  0  0  0  0  0
  -22.8200  -29.2810   53.8990 C   0  0  0  0  0  0  0  0  0  0  0  0
  -23.7460  -30.2990   53.3020 S   0  0  0  0  0  0  0  0  0  0  0  0
  -26.3320  -31.4010   52.6070 H   0  0  0  0  0  0  0  0  0  0  0  0
  -27.2820  -30.1540   53.2760 H   0  0  0  0  0  0  0  0  0  0  0  0
  -21.3220  -29.3490   53.9070 C   0  0  0  0  0  0  0  0  0  0  0  0
  -20.5380  -28.7450   52.7790 C   0  0  0  0  0  0  0  0  0  0  0  0
  -19.0400  -28.8130   52.7870 C   0  0  0  0  0  0  0  0  0  0  0  0
  -18.3250  -29.4840   53.9210 C   0  0  0  0  0  0  0  0  0  0  0  0
  -16.8270  -29.5520   53.9290 N   0  0  0  0  0  0  0  0  0  0  0  0
  -16.1120  -30.2240   55.0640 C   0  0  0  0  0  0  0  0  0  0  0  0
  -16.8950  -30.8280   56.1910 C   0  0  0  0  0  0  0  0  0  0  0  0
  -18.3940  -30.7600   56.1840 C   0  0  0  0  0  0  0  0  0  0  0  0
  -19.1090  -30.0880   55.0490 C   0  0  0  0  0  0  0  0  0  0  0  0
  -20.6070  -30.0200   55.0420 N   0  0  0  0  0  0  0  0  0  0  0  0
  -21.0300  -28.2830   51.9980 H   0  0  0  0  0  0  0  0  0  0  0  0
  -18.5010  -28.3970   52.0110 H   0  0  0  0  0  0  0  0  0  0  0  0
  -15.0810  -30.2700   55.0690 H   0  0  0  0  0  0  0  0  0  0  0  0
  -16.4030  -31.2900   56.9720 H   0  0  0  0  0  0  0  0  0  0  0  0
  -18.9330  -31.1750   56.9590 H   0  0  0  0  0  0  0  0  0  0  0  0
  -23.1400  -26.9610   55.1880 C   0  0  0  0  0  0  0  0  0  0  0  0
  -24.0780  -25.8410   55.5310 C   0  0  0  0  0  0  0  0  0  0  0  0
  -23.5620  -24.6190   56.2310 C   0  0  0  0  0  0  0  0  0  0  0  0
  -22.1080  -24.5160   56.5880 C   0  0  0  0  0  0  0  0  0  0  0  0
  -21.1710  -25.6360   56.2450 C   0  0  0  0  0  0  0  0  0  0  0  0
  -19.7180  -25.5330   56.6020 Cl  0  0  0  0  0  0  0  0  0  0  0  0
  -21.6870  -26.8580   55.5450 C   0  0  0  0  0  0  0  0  0  0  0  0
  -25.0780  -25.9120   55.2860 H   0  0  0  0  0  0  0  0  0  0  0  0
  -24.2060  -23.8490   56.4670 H   0  0  0  0  0  0  0  0  0  0  0  0
  -21.7540  -23.6750   57.0690 H   0  0  0  0  0  0  0  0  0  0  0  0
  -21.0420  -27.6290   55.3090 H   0  0  0  0  0  0  0  0  0  0  0  0
  1  8  1  0
  1  2  1  0
  2  3  2  0
  3  4  1  0
  4 24  1  0
  5  9  1  0
  5  4  2  0
  6  2  1  0
  6  5  1  0
  7  1  1  0
  9 18  1  0
 10 11  1  0
 10  9  2  0
 11 12  2  0
 12 13  1  0
 12 17  1  0
 13 14  2  0
 14 21  1  0
 14 15  1  0
 15 22  1  0
 16 15  2  0
 16 23  1  0
 17 16  1  0
 18 17  2  0
 19 10  1  0
 20 11  1  0
 24 25  2  0
 24 30  1  0
 25 26  1  0
 26 32  1  0
 26 27  2  0
 27 33  1  0
 28 27  1  0
 28 29  1  0
 30 28  2  0
 31 25  1  0
 34 30  1  0
M  END
>  <minimizedAffinity>  (150) 
-8.16638756

$$$$

     RDKit          3D

 59 51  0  0  0  0  0  0  0  0999 V2000
  -21.7390  -25.2860   56.1950 C   0  0  0  0  0  0  0  0  0  0  0  0
  -22.8960  -24.3880   56.5160 C   0  0  0  0  0  0  0  0  0  0  0  0
  -24.3010  -24.8860   56.3490 C   0  0  0  0  0  0  0  0  0  0  0  0
  -24.5480  -26.2830   55.8610 C   0  0  0  0  0  0  0  0  0  0  0  0
  -23.3900  -27.1810   55.5400 C   0  0  0  0  0  0  0  0  0  0  0  0
  -21.9850  -26.6820   55.7070 C   0  0  0  0  0  0  0  0  0  0  0  0
  -22.7270  -23.4270   56.8520 H   0  0  0  0  0  0  0  0  0  0  0  0
  -25.0980  -24.2680   56.5700 H   0  0  0  0  0  0  0  0  0  0  0  0
  -23.5600  -28.1420   55.2040 H   0  0  0  0  0  0  0  0  0  0  0  0
  -20.8270  -27.5800   55.3860 C   0  0  0  0  0  0  0  0  0  0  0  0
  -20.0930  -27.4220   54.0880 C   0  0  0  0  0  0  0  0  0  0  0  0
  -18.9350  -28.3190   53.7670 C   0  0  0  0  0  0  0  0  0  0  0  0
  -18.5120  -29.3760   54.7440 C   0  0  0  0  0  0  0  0  0  0  0  0
  -19.2460  -29.5340   56.0420 C   0  0  0  0  0  0  0  0  0  0  0  0
  -20.4040  -28.6370   56.3630 C   0  0  0  0  0  0  0  0  0  0  0  0
  -20.3840  -26.6950   53.4160 H   0  0  0  0  0  0  0  0  0  0  0  0
  -18.4290  -28.2100   52.8740 H   0  0  0  0  0  0  0  0  0  0  0  0
  -18.9550  -30.2620   56.7150 H   0  0  0  0  0  0  0  0  0  0  0  0
  -20.9100  -28.7460   57.2560 H   0  0  0  0  0  0  0  0  0  0  0  0
  -17.3540  -30.2740   54.4230 C   0  0  0  0  0  0  0  0  0  0  0  0
  -16.9170  -30.4550   53.0000 O   0  0  0  0  0  0  0  0  0  0  0  0
  -16.6320  -30.9910   55.5260 N   0  0  0  0  0  4  0  0  0  0  0  0
  -16.9190  -30.8720   56.4600 H   0  0  0  0  0  0  0  0  0  0  0  0
  -15.4750  -31.8890   55.2050 C   0  0  0  0  0  0  0  0  0  0  0  0
  -15.6110  -32.7240   54.5500 H   0  0  0  0  0  0  0  0  0  0  0  0
  -14.6480  -32.5290   54.9760 H   0  0  0  0  0  0  0  0  0  0  0  0
  -14.1260  -31.6150   55.8020 C   0  0  0  0  0 15  0  0  0  0  0  0
  -13.2310  -31.5250   57.0020 C   0  0  0  0  0  3  0  0  0  0  0  0
  -12.6850  -31.2330   55.6350 C   0  0  0  0  0  2  0  0  0  0  0  0
  -13.1640  -31.4210   56.2280 H   0  0  0  0  0  0  0  0  0  0  0  0
  -13.0870  -31.6070   58.0590 H   0  0  0  0  0  0  0  0  0  0  0  0
  -12.2000  -31.2820   57.1610 H   0  0  0  0  0  0  0  0  0  0  0  0
  -11.8670  -30.9560   55.0050 H   0  0  0  0  0  0  0  0  0  0  0  0
  -13.0910  -31.2240   54.6460 H   0  0  0  0  0  0  0  0  0  0  0  0
  -20.3340  -24.7870   56.3630 C   0  0  0  0  0  0  0  0  0  0  0  0
  -20.1580  -23.7900   56.7110 H   0  0  0  0  0  0  0  0  0  0  0  0
  -19.5080  -25.4280   56.1330 H   0  0  0  0  0  0  0  0  0  0  0  0
  -19.3320  -24.4310   56.4820 H   0  0  0  0  0  0  0  0  0  0  0  0
  -25.9530  -26.7820   55.6930 C   0  0  0  0  0  0  0  0  0  0  0  0
  -27.1090  -25.9130   56.0890 O   0  0  0  0  0  0  0  0  0  0  0  0
  -26.2010  -28.1500   55.1300 N   0  0  0  0  0  2  0  0  0  0  0  0
  -25.4420  -28.7200   54.8700 H   0  0  0  0  0  0  0  0  0  0  0  0
  -27.6060  -28.6480   54.9620 C   0  0  0  0  0  1  0  0  0  0  0  0
  -28.3170  -29.2880   56.1180 C   0  0  0  0  0  2  0  0  0  0  0  0
  -29.7220  -29.7870   55.9510 C   0  0  0  0  0  2  0  0  0  0  0  0
  -30.4150  -29.6460   54.6280 C   0  0  0  0  0  2  0  0  0  0  0  0
  -29.7040  -29.0070   53.4720 C   0  0  0  0  0  2  0  0  0  0  0  0
  -28.2990  -28.5080   53.6400 C   0  0  0  0  0  2  0  0  0  0  0  0
  -28.6080  -29.0040   54.8430 H   0  0  0  0  0  0  0  0  0  0  0  0
  -27.8220  -29.3880   57.0620 H   0  0  0  0  0  0  0  0  0  0  0  0
  -28.8250  -29.7440   56.9420 H   0  0  0  0  0  0  0  0  0  0  0  0
  -30.2290  -30.2430   56.7750 H   0  0  0  0  0  0  0  0  0  0  0  0
  -30.7240  -30.1420   55.8310 H   0  0  0  0  0  0  0  0  0  0  0  0
  -31.4170  -30.0020   54.5090 H   0  0  0  0  0  0  0  0  0  0  0  0
  -30.9100  -29.5450   53.6840 H   0  0  0  0  0  0  0  0  0  0  0  0
  -30.1980  -28.9060   52.5290 H   0  0  0  0  0  0  0  0  0  0  0  0
  -29.1960  -28.5500   52.6480 H   0  0  0  0  0  0  0  0  0  0  0  0
  -27.7910  -28.0520   52.8150 H   0  0  0  0  0  0  0  0  0  0  0  0
  -27.2970  -28.1520   53.7590 H   0  0  0  0  0  0  0  0  0  0  0  0
  1 35  1  0
  1  2  1  0
  2  7  1  0
  3  2  2  0
  3  8  1  0
  4  3  1  0
  5  6  1  0
  5  4  2  0
  6  1  2  0
  9  5  1  0
 10  6  1  0
 10 15  1  0
 11 10  2  0
 12 11  1  0
 12 13  2  0
 13 14  1  0
 14 15  2  0
 14 18  1  0
 15 19  1  0
 16 11  1  0
 17 12  1  0
 20 13  1  0
 20 22  1  0
 21 20  2  0
 22 23  1  0
 24 22  2  0
 25 24  1  0
 26 24  1  0
 28 32  1  0
 28 31  1  0
 30 28  1  0
 33 29  1  0
 34 29  1  0
 35 38  1  0
 35 36  1  0
 37 35  1  0
 39  4  1  0
 39 40  2  0
 41 39  1  0
 42 41  1  0
 44 51  1  0
 44 50  1  0
 45 52  1  0
 48 59  1  0
 49 43  1  0
 53 45  1  0
 54 46  1  0
 55 46  1  0
 56 47  1  0
 57 47  1  0
 58 48  1  0
M  END
>  <minimizedAffinity>  (151) 
-9.89397621

$$$$

     RDKit          3D

 58 62  0  0  1  0  0  0  0  0999 V2000
  -20.2650  -28.6030   54.7160 C   0  0  0  0  0  0  0  0  0  0  0  0
  -19.3910  -28.4460   53.5070 C   0  0  0  0  0  0  0  0  0  0  0  0
  -18.1820  -29.3170   53.3370 C   0  0  0  0  0  0  0  0  0  0  0  0
  -17.8460  -30.3440   54.3760 C   0  0  0  0  0  0  0  0  0  0  0  0
  -18.7190  -30.5020   55.5860 C   0  0  0  0  0  0  0  0  0  0  0  0
  -19.9290  -29.6310   55.7550 C   0  0  0  0  0  0  0  0  0  0  0  0
  -19.6220  -27.7390   52.7920 H   0  0  0  0  0  0  0  0  0  0  0  0
  -17.5810  -29.2080   52.5050 H   0  0  0  0  0  0  0  0  0  0  0  0
  -18.4880  -31.2090   56.3010 H   0  0  0  0  0  0  0  0  0  0  0  0
  -20.5300  -29.7390   56.5870 H   0  0  0  0  0  0  0  0  0  0  0  0
  -22.8780  -28.0860   54.4950 C   0  0  0  0  0  3  0  0  0  0  0  0
  -23.7640  -26.9280   54.8440 O   0  0  0  0  0  0  0  0  0  0  0  0
  -22.9070  -25.8560   55.4510 C   0  0  0  0  0  0  0  0  0  0  0  0
  -23.2320  -24.4920   55.9840 N   0  0  0  0  0  0  0  0  0  0  0  0
  -22.1430  -23.6260   56.5420 C   0  0  0  0  0  0  0  0  0  0  0  0
  -20.7280  -24.1230   56.5680 N   0  0  0  0  0  0  0  0  0  0  0  0
  -20.4020  -25.4870   56.0360 C   0  0  0  0  0  3  0  0  0  0  0  0
  -21.4920  -26.3540   55.4770 C   0  0  0  0  0  0  0  0  0  0  0  0
  -21.4740  -27.7330   54.8860 C   0  0  0  0  0  0  0  0  0  0  0  0
  -22.3660  -22.6870   56.9090 H   0  0  0  0  0  0  0  0  0  0  0  0
  -24.2010  -31.9500   52.6040 C   0  0  0  0  0  0  0  0  0  0  0  0
  -25.1000  -31.2430   53.5750 C   0  0  0  0  0  0  0  0  0  0  0  0
  -24.6590  -29.9560   54.2060 C   0  0  0  0  0  0  0  0  0  0  0  0
  -23.3190  -29.3740   53.8650 C   0  0  0  0  0  0  0  0  0  0  0  0
  -22.4200  -30.0810   52.8930 C   0  0  0  0  0  0  0  0  0  0  0  0
  -22.8610  -31.3680   52.2630 C   0  0  0  0  0  0  0  0  0  0  0  0
  -26.0220  -31.6430   53.8100 H   0  0  0  0  0  0  0  0  0  0  0  0
  -25.2780  -29.4700   54.8740 H   0  0  0  0  0  0  0  0  0  0  0  0
  -21.4980  -29.6810   52.6590 H   0  0  0  0  0  0  0  0  0  0  0  0
  -22.2430  -31.8540   51.5950 H   0  0  0  0  0  0  0  0  0  0  0  0
  -24.6420  -33.2380   51.9740 O   0  0  0  0  0  0  0  0  0  0  0  0
  -23.7240  -34.4230   51.9690 C   0  0  0  0  0  0  0  0  0  0  0  0
  -22.7540  -34.3510   52.4150 H   0  0  0  0  0  0  0  0  0  0  0  0
  -24.0380  -35.3420   51.5200 H   0  0  0  0  0  0  0  0  0  0  0  0
  -23.0680  -35.2690   51.9660 H   0  0  0  0  0  0  0  0  0  0  0  0
  -18.9870  -25.9840   56.0620 N   0  0  0  0  0  0  0  0  0  0  0  0
  -18.2720  -25.4150   56.4280 H   0  0  0  0  0  0  0  0  0  0  0  0
  -18.7740  -26.8800   55.7120 H   0  0  0  0  0  0  0  0  0  0  0  0
  -16.6360  -31.2160   54.2070 N   0  0  0  0  0  0  0  0  0  0  0  0
  -15.4330  -31.0060   55.0780 C   0  0  0  0  0  0  0  0  0  0  0  0
  -15.4400  -29.9260   56.1190 O   0  0  0  0  0  0  0  0  0  0  0  0
  -14.2240  -31.8770   54.9090 N   0  0  0  0  0  0  0  0  0  0  0  0
  -16.6320  -31.9250   53.5240 H   0  0  0  0  0  0  0  0  0  0  0  0
  -14.2190  -32.5860   54.2260 H   0  0  0  0  0  0  0  0  0  0  0  0
  -13.0210  -31.6670   55.7800 C   0  0  0  0  0  0  0  0  0  0  0  0
  -13.1720  -31.6330   57.2720 C   0  0  0  0  0  0  0  0  0  0  0  0
  -11.9690  -31.4230   58.1440 C   0  0  0  0  0  0  0  0  0  0  0  0
  -10.6150  -31.2480   57.5230 C   0  0  0  0  0  0  0  0  0  0  0  0
  -10.4640  -31.2820   56.0310 C   0  0  0  0  0  0  0  0  0  0  0  0
  -11.6670  -31.4920   55.1600 C   0  0  0  0  0  0  0  0  0  0  0  0
  -11.5160  -31.5260   53.6670 F   0  0  0  0  0  0  0  0  0  0  0  0
  -14.1030  -31.7540   57.6990 H   0  0  0  0  0  0  0  0  0  0  0  0
   -9.7880  -31.1040   58.1220 H   0  0  0  0  0  0  0  0  0  0  0  0
   -9.5320  -31.1610   55.6040 H   0  0  0  0  0  0  0  0  0  0  0  0
  -12.1200  -31.3900   59.6350 C   0  0  0  0  0  0  0  0  0  0  0  0
  -12.2720  -31.3560   61.1270 F   0  0  0  0  0  0  0  0  0  0  0  0
  -10.8630  -30.5790   59.7450 F   0  0  0  0  0  0  0  0  0  0  0  0
  -13.3780  -32.2000   59.5260 F   0  0  0  0  0  0  0  0  0  0  0  0
  1 19  1  0
  1  6  1  0
  2  1  2  0
  3  2  1  0
  3  4  2  0
  4  5  1  0
  5  6  2  0
  5  9  1  0
  6 10  1  0
  7  2  1  0
  8  3  1  0
 11 24  1  0
 11 12  1  0
 11 19  1  0
 12 13  1  0
 13 18  1  0
 13 14  2  0
 14 15  1  0
 15 16  2  0
 15 20  1  0
 17 36  1  0
 17 16  1  0
 18 17  1  0
 19 18  2  0
 21 22  1  0
 22 27  1  0
 22 23  2  0
 23 28  1  0
 24 23  1  0
 25 24  2  0
 26 21  2  0
 26 25  1  0
 29 25  1  0
 30 26  1  0
 31 21  1  0
 32 31  1  0
 32 33  1  0
 34 32  1  0
 35 32  1  0
 36 37  1  0
 38 36  1  0
 39  4  1  0
 39 40  1  0
 40 41  2  0
 42 40  1  0
 42 45  1  0
 43 39  1  0
 44 42  1  0
 45 46  1  0
 46 52  1  0
 46 47  2  0
 47 55  1  0
 48 53  1  0
 48 47  1  0
 49 48  2  0
 50 45  2  0
 50 49  1  0
 51 50  1  0
 54 49  1  0
 55 57  1  0
 55 56  1  0
 58 55  1  0
M  END
>  <minimizedAffinity>  (152) 
-9.5454998

$$$$

     RDKit          3D

 37 39  0  0  0  0  0  0  0  0999 V2000
  -22.0280  -25.6780   56.0020 C   0  0  0  0  0  0  0  0  0  0  0  0
  -20.6940  -26.3640   55.9950 C   0  0  0  0  0  0  0  0  0  0  0  0
  -20.5980  -27.8130   55.6210 C   0  0  0  0  0  0  0  0  0  0  0  0
  -21.8350  -28.5770   55.2540 C   0  0  0  0  0  0  0  0  0  0  0  0
  -23.1690  -27.8910   55.2600 C   0  0  0  0  0  0  0  0  0  0  0  0
  -23.2660  -26.4420   55.6340 C   0  0  0  0  0  0  0  0  0  0  0  0
  -19.8420  -25.8380   56.2480 H   0  0  0  0  0  0  0  0  0  0  0  0
  -21.7690  -29.5740   54.9960 H   0  0  0  0  0  0  0  0  0  0  0  0
  -24.4070  -28.6550   54.8930 C   0  0  0  0  0  0  0  0  0  0  0  0
  -25.3670  -29.0850   55.9620 C   0  0  0  0  0  0  0  0  0  0  0  0
  -26.6050  -29.8490   55.5950 C   0  0  0  0  0  0  0  0  0  0  0  0
  -26.8820  -30.1820   54.1590 C   0  0  0  0  0  0  0  0  0  0  0  0
  -25.9220  -29.7520   53.0900 C   0  0  0  0  0  0  0  0  0  0  0  0
  -24.6840  -28.9880   53.4570 C   0  0  0  0  0  0  0  0  0  0  0  0
  -25.1770  -28.8560   56.9500 H   0  0  0  0  0  0  0  0  0  0  0  0
  -27.2660  -30.1450   56.3300 H   0  0  0  0  0  0  0  0  0  0  0  0
  -27.7340  -30.7080   53.9060 H   0  0  0  0  0  0  0  0  0  0  0  0
  -26.1120  -29.9810   52.1020 H   0  0  0  0  0  0  0  0  0  0  0  0
  -24.0230  -28.6920   52.7220 H   0  0  0  0  0  0  0  0  0  0  0  0
  -19.2640  -28.4990   55.6140 C   0  0  0  0  0  0  0  0  0  0  0  0
  -19.1770  -29.9740   55.8740 C   0  0  0  0  0  0  0  0  0  0  0  0
  -17.8430  -30.6590   55.8670 C   0  0  0  0  0  0  0  0  0  0  0  0
  -16.5950  -29.8700   55.6010 N   0  0  0  0  0  0  0  0  0  0  0  0
  -16.6820  -28.3950   55.3410 C   0  0  0  0  0  0  0  0  0  0  0  0
  -18.0160  -27.7100   55.3480 C   0  0  0  0  0  0  0  0  0  0  0  0
  -20.0360  -30.5170   56.0570 H   0  0  0  0  0  0  0  0  0  0  0  0
  -17.7830  -31.6740   56.0450 H   0  0  0  0  0  0  0  0  0  0  0  0
  -15.8230  -27.8520   55.1580 H   0  0  0  0  0  0  0  0  0  0  0  0
  -18.0760  -26.6950   55.1700 H   0  0  0  0  0  0  0  0  0  0  0  0
  -20.8910  -23.3760   56.3960 N   0  0  0  0  0  0  0  0  0  0  0  0
  -22.1240  -24.2290   56.3760 C   0  0  0  0  0  0  0  0  0  0  0  0
  -23.4550  -23.6320   56.7290 O   0  0  0  0  0  0  0  0  0  0  0  0
  -20.0170  -23.7670   56.1640 H   0  0  0  0  0  0  0  0  0  0  0  0
  -20.9540  -22.4250   56.6420 H   0  0  0  0  0  0  0  0  0  0  0  0
  -24.6000  -25.7560   55.6410 N   0  0  0  0  0  0  0  0  0  0  0  0
  -24.6630  -24.8050   55.8870 H   0  0  0  0  0  0  0  0  0  0  0  0
  -25.4120  -26.2570   55.4000 H   0  0  0  0  0  0  0  0  0  0  0  0
  1 31  1  0
  2  1  1  0
  2  7  1  0
  3  2  2  0
  4  5  2  0
  4  3  1  0
  5  6  1  0
  6 35  1  0
  6  1  2  0
  8  4  1  0
  9  5  1  0
  9 10  1  0
 10 15  1  0
 11 10  2  0
 11 16  1  0
 12 11  1  0
 13 14  1  0
 13 12  2  0
 14  9  2  0
 17 12  1  0
 18 13  1  0
 19 14  1  0
 20  3  1  0
 20 21  1  0
 21 26  1  0
 22 21  2  0
 22 27  1  0
 23 22  1  0
 24 25  1  0
 24 23  2  0
 25 20  2  0
 28 24  1  0
 29 25  1  0
 30 34  1  0
 31 30  1  0
 31 32  2  0
 33 30  1  0
 35 36  1  0
 37 35  1  0
M  END
>  <minimizedAffinity>  (153) 
-7.77826023

$$$$

     RDKit          3D

 42 45  0  0  0  0  0  0  0  0999 V2000
  -23.5650  -27.6000   55.3880 C   0  0  0  0  0  0  0  0  0  0  0  0
  -22.4540  -28.5740   55.6470 C   0  0  0  0  0  0  0  0  0  0  0  0
  -21.1170  -28.0810   56.1160 C   0  0  0  0  0  0  0  0  0  0  0  0
  -20.8920  -26.6120   56.3260 C   0  0  0  0  0  0  0  0  0  0  0  0
  -22.0020  -25.6390   56.0670 C   0  0  0  0  0  0  0  0  0  0  0  0
  -21.7760  -24.1700   56.2780 Br  0  0  0  0  0  0  0  0  0  0  0  0
  -23.3390  -26.1310   55.5980 C   0  0  0  0  0  0  0  0  0  0  0  0
  -22.6090  -29.5840   55.5020 H   0  0  0  0  0  0  0  0  0  0  0  0
  -19.9720  -26.2730   56.6490 H   0  0  0  0  0  0  0  0  0  0  0  0
  -20.0070  -29.0550   56.3750 C   0  0  0  0  0  0  0  0  0  0  0  0
  -19.1180  -29.4950   55.2500 C   0  0  0  0  0  0  0  0  0  0  0  0
  -19.2170  -29.0490   53.8220 C   0  0  0  0  0  0  0  0  0  0  0  0
  -20.2230  -28.0850   53.2670 O   0  0  0  0  0  0  0  0  0  0  0  0
  -18.1340  -29.7370   53.0440 N   0  0  0  0  0  0  0  0  0  0  0  0
  -17.3650  -30.6080   53.9930 C   0  0  0  0  0  0  0  0  0  0  0  0
  -16.1900  -31.5180   53.7920 N   0  0  0  0  0  0  0  0  0  0  0  0
  -15.6230  -32.2790   54.9540 C   0  0  0  0  0  0  0  0  0  0  0  0
  -16.2310  -32.1300   56.3170 C   0  0  0  0  0  0  0  0  0  0  0  0
  -15.6640  -32.8900   57.4790 Br  0  0  0  0  0  0  0  0  0  0  0  0
  -17.4060  -31.2200   56.5180 C   0  0  0  0  0  0  0  0  0  0  0  0
  -17.9730  -30.4590   55.3560 C   0  0  0  0  0  0  0  0  0  0  0  0
  -19.8550  -29.4230   57.3270 H   0  0  0  0  0  0  0  0  0  0  0  0
  -17.9580  -29.6340   52.0810 H   0  0  0  0  0  0  0  0  0  0  0  0
  -14.8140  -32.9050   54.8160 H   0  0  0  0  0  0  0  0  0  0  0  0
  -17.8250  -31.1170   57.4560 H   0  0  0  0  0  0  0  0  0  0  0  0
  -25.0100  -28.8530   53.6300 C   0  0  0  0  0  0  0  0  0  0  0  0
  -26.3460  -29.3460   53.1600 C   0  0  0  0  0  0  0  0  0  0  0  0
  -27.5740  -29.0800   53.9800 C   0  0  0  0  0  0  0  0  0  0  0  0
  -27.4660  -28.3200   55.2690 C   0  0  0  0  0  0  0  0  0  0  0  0
  -26.1290  -27.8270   55.7380 C   0  0  0  0  0  0  0  0  0  0  0  0
  -24.9010  -28.0930   54.9180 C   0  0  0  0  0  0  0  0  0  0  0  0
  -26.4210  -29.8690   52.2740 H   0  0  0  0  0  0  0  0  0  0  0  0
  -28.4940  -29.4190   53.6570 H   0  0  0  0  0  0  0  0  0  0  0  0
  -28.3100  -28.1370   55.8320 H   0  0  0  0  0  0  0  0  0  0  0  0
  -26.0540  -27.3040   56.6250 H   0  0  0  0  0  0  0  0  0  0  0  0
  -23.7820  -29.1200   52.8110 O   0  0  0  0  0  0  0  0  0  0  0  0
  -23.1640  -30.4870   52.8090 C   0  0  0  0  0  0  0  0  0  0  0  0
  -23.5990  -31.2710   53.3920 H   0  0  0  0  0  0  0  0  0  0  0  0
  -22.2880  -30.6760   52.2240 H   0  0  0  0  0  0  0  0  0  0  0  0
  -22.7230  -31.4610   52.8070 H   0  0  0  0  0  0  0  0  0  0  0  0
  -24.4490  -25.1570   55.3390 O   0  0  0  0  0  0  0  0  0  0  0  0
  -24.3080  -24.2400   55.4700 H   0  0  0  0  0  0  0  0  0  0  0  0
  1  7  2  0
  1  2  1  0
  2  3  2  0
  3  4  1  0
  3 10  1  0
  4  9  1  0
  5  6  1  0
  5  4  2  0
  7  5  1  0
  8  2  1  0
 10 22  1  0
 11 21  1  0
 11 10  2  0
 12 11  1  0
 13 12  2  0
 14 12  1  0
 14 15  1  0
 15 21  1  0
 16 15  2  0
 16 17  1  0
 17 18  2  0
 18 20  1  0
 18 19  1  0
 20 25  1  0
 21 20  2  0
 23 14  1  0
 24 17  1  0
 26 31  1  0
 27 26  2  0
 27 28  1  0
 28 29  2  0
 29 30  1  0
 29 34  1  0
 30 35  1  0
 31  1  1  0
 31 30  2  0
 32 27  1  0
 33 28  1  0
 36 26  1  0
 37 36  1  0
 37 38  1  0
 39 37  1  0
 40 37  1  0
 41 42  1  0
 41  7  1  0
M  END
>  <minimizedAffinity>  (154) 
-8.68105316

$$$$

     RDKit          3D

 47 50  0  0  1  0  0  0  0  0999 V2000
  -16.1310  -29.1570   55.5930 C   0  0  0  0  0  0  0  0  0  0  0  0
  -17.1710  -30.2370   55.5580 C   0  0  0  0  0  0  0  0  0  0  0  0
  -18.6270  -29.8780   55.5600 C   0  0  0  0  0  0  0  0  0  0  0  0
  -19.0440  -28.4370   55.5960 C   0  0  0  0  0  0  0  0  0  0  0  0
  -18.0040  -27.3570   55.6310 C   0  0  0  0  0  0  0  0  0  0  0  0
  -16.5480  -27.7160   55.6290 C   0  0  0  0  0  0  0  0  0  0  0  0
  -15.5090  -26.6350   55.6640 Cl  0  0  0  0  0  0  0  0  0  0  0  0
  -16.8840  -31.2290   55.5330 H   0  0  0  0  0  0  0  0  0  0  0  0
  -19.3420  -30.6220   55.5360 H   0  0  0  0  0  0  0  0  0  0  0  0
  -18.2910  -26.3650   55.6560 H   0  0  0  0  0  0  0  0  0  0  0  0
  -20.5000  -28.0780   55.5980 N   0  0  0  0  0  0  0  0  0  0  0  0
  -20.9240  -26.6680   55.8830 C   0  0  0  0  0  3  0  0  0  0  0  0
  -19.8920  -25.6170   56.1670 N   0  0  0  0  0  0  0  0  0  0  0  0
  -20.3160  -24.2070   56.4520 C   0  0  0  0  0  0  0  0  0  0  0  0
  -21.7720  -23.8470   56.4540 N   0  0  0  0  0  2  0  0  0  0  0  0
  -22.8040  -24.8980   56.1700 C   0  0  0  0  0  0  0  0  0  0  0  0
  -24.3010  -24.8420   56.1040 C   0  0  0  0  0  0  0  0  0  0  0  0
  -24.8030  -26.2170   55.7770 C   0  0  0  0  0  0  0  0  0  0  0  0
  -23.6160  -27.1230   55.6420 S   0  0  0  0  0  0  0  0  0  0  0  0
  -22.3800  -26.3080   55.8850 C   0  0  0  0  0  0  0  0  0  0  0  0
  -21.1770  -28.7680   55.4120 H   0  0  0  0  0  0  0  0  0  0  0  0
  -19.6050  -23.4840   56.6470 H   0  0  0  0  0  0  0  0  0  0  0  0
  -24.8840  -24.0030   56.2560 H   0  0  0  0  0  0  0  0  0  0  0  0
  -26.2400  -26.6160   55.6140 C   0  0  0  0  0  0  0  0  0  0  0  0
  -26.7410  -27.9870   55.2710 C   0  0  0  0  0  0  0  0  0  0  0  0
  -28.2380  -27.9320   55.2110 C   0  0  0  0  0  0  0  0  0  0  0  0
  -28.6630  -26.5270   55.5170 C   0  0  0  0  0  0  0  0  0  0  0  0
  -27.4280  -25.7140   55.7670 N   0  0  0  0  0  0  0  0  0  0  0  0
  -26.1570  -28.8220   55.1050 H   0  0  0  0  0  0  0  0  0  0  0  0
  -28.8660  -28.7230   54.9960 H   0  0  0  0  0  0  0  0  0  0  0  0
  -29.6350  -26.1810   55.5510 H   0  0  0  0  0  0  0  0  0  0  0  0
  -27.4020  -24.7560   55.9910 H   0  0  0  0  0  0  0  0  0  0  0  0
  -14.6750  -29.5160   55.5910 O   0  0  0  0  0  1  0  0  0  0  0  0
  -14.2440  -30.9000   55.9780 C   0  0  0  0  0  3  0  0  0  0  0  0
  -14.3940  -31.7160   55.3030 H   0  0  0  0  0  0  0  0  0  0  0  0
  -14.7010  -30.7290   55.0260 H   0  0  0  0  0  0  0  0  0  0  0  0
  -10.1220  -32.3390   58.7960 F   0  0  0  0  0  0  0  0  0  0  0  0
  -11.5410  -31.8590   58.7210 C   0  0  0  0  0  0  0  0  0  0  0  0
  -12.3180  -31.6180   59.9820 C   0  0  0  0  0  0  0  0  0  0  0  0
  -13.7370  -31.1380   59.9070 C   0  0  0  0  0  0  0  0  0  0  0  0
  -14.3790  -30.8980   58.5730 C   0  0  0  0  0  0  0  0  0  0  0  0
  -13.6020  -31.1390   57.3130 C   0  0  0  0  0  0  0  0  0  0  0  0
  -12.1830  -31.6190   57.3870 C   0  0  0  0  0  0  0  0  0  0  0  0
  -11.8760  -31.7820   60.9000 H   0  0  0  0  0  0  0  0  0  0  0  0
  -14.2720  -30.9720   60.7740 H   0  0  0  0  0  0  0  0  0  0  0  0
  -15.3550  -30.5680   58.5220 H   0  0  0  0  0  0  0  0  0  0  0  0
  -11.6480  -31.7850   56.5200 H   0  0  0  0  0  0  0  0  0  0  0  0
  1  6  1  0
  2  3  1  0
  2  1  2  0
  3  4  2  0
  4 11  1  0
  4  5  1  0
  5 10  1  0
  6  5  2  0
  6  7  1  0
  8  2  1  0
  9  3  1  0
 12 11  1  0
 12 20  1  0
 12 13  1  0
 13 14  2  0
 14 15  1  0
 14 22  1  0
 16 15  1  0
 17 16  1  0
 17 23  1  0
 18 17  2  0
 19 18  1  0
 19 20  1  0
 20 16  2  0
 21 11  1  0
 24 28  1  0
 24 18  1  0
 25 24  2  0
 26 25  1  0
 26 27  2  0
 27 31  1  0
 27 28  1  0
 28 32  1  0
 29 25  1  0
 30 26  1  0
 33  1  1  0
 34 42  1  0
 35 34  1  0
 36 34  1  0
 38 37  1  0
 38 39  1  0
 39 44  1  0
 40 39  2  0
 40 45  1  0
 41 40  1  0
 42 43  1  0
 42 41  2  0
 43 38  2  0
 46 41  1  0
 47 43  1  0
M  END
>  <minimizedAffinity>  (155) 
-11.6690807

$$$$

     RDKit          3D

 69 68  0  0  0  0  0  0  0  0999 V2000
  -25.1870  -27.5480   55.2800 C   0  0  0  0  0  0  0  0  0  0  0  0
  -25.5820  -26.1640   55.7030 C   0  0  0  0  0  0  0  0  0  0  0  0
  -24.5320  -25.1830   56.1330 C   0  0  0  0  0  0  0  0  0  0  0  0
  -23.0870  -25.5860   56.1400 C   0  0  0  0  0  0  0  0  0  0  0  0
  -22.0370  -24.6050   56.5700 N   0  0  0  0  0  0  0  0  0  0  0  0
  -20.5920  -25.0070   56.5770 C   0  0  0  0  0  0  0  0  0  0  0  0
  -20.1970  -26.3910   56.1550 N   0  0  0  0  0  0  0  0  0  0  0  0
  -21.2470  -27.3720   55.7250 C   0  0  0  0  0  0  0  0  0  0  0  0
  -20.8530  -28.7560   55.3020 N   0  0  0  0  0  0  0  0  0  0  0  0
  -22.6920  -26.9690   55.7170 C   0  0  0  0  0  0  0  0  0  0  0  0
  -23.7420  -27.9510   55.2870 C   0  0  0  0  0  0  0  0  0  0  0  0
  -26.5760  -25.8870   55.6980 H   0  0  0  0  0  0  0  0  0  0  0  0
  -24.8040  -24.2300   56.4240 H   0  0  0  0  0  0  0  0  0  0  0  0
  -19.8700  -24.3320   56.8740 H   0  0  0  0  0  0  0  0  0  0  0  0
  -21.5420  -29.4010   55.0190 H   0  0  0  0  0  0  0  0  0  0  0  0
  -23.4710  -28.9030   54.9960 H   0  0  0  0  0  0  0  0  0  0  0  0
  -19.4080  -29.1590   55.3090 C   0  0  0  0  0  0  0  0  0  0  0  0
  -19.0320  -30.6070   55.1960 C   0  0  0  0  0  0  0  0  0  0  0  0
  -17.5870  -31.0100   55.2030 C   0  0  0  0  0  0  0  0  0  0  0  0
  -16.5180  -29.9650   55.3240 C   0  0  0  0  0  0  0  0  0  0  0  0
  -16.8940  -28.5170   55.4370 C   0  0  0  0  0  0  0  0  0  0  0  0
  -18.3380  -28.1140   55.4290 C   0  0  0  0  0  0  0  0  0  0  0  0
  -19.7680  -31.3260   55.1130 H   0  0  0  0  0  0  0  0  0  0  0  0
  -17.3290  -32.0060   55.1260 H   0  0  0  0  0  0  0  0  0  0  0  0
  -18.5970  -27.1180   55.5070 H   0  0  0  0  0  0  0  0  0  0  0  0
  -15.8240  -27.4720   55.5570 C   0  0  0  0  0  0  0  0  0  0  0  0
  -14.7550  -26.4270   55.6770 F   0  0  0  0  0  0  0  0  0  0  0  0
  -16.3750  -26.7700   54.3520 F   0  0  0  0  0  0  0  0  0  0  0  0
  -15.2730  -28.1750   56.7630 F   0  0  0  0  0  0  0  0  0  0  0  0
  -15.0730  -30.3680   55.3310 O   0  0  0  0  0  0  0  0  0  0  0  0
  -14.6440  -31.6080   56.0570 C   0  0  0  0  0  0  0  0  0  0  0  0
  -14.9000  -32.5720   55.6680 H   0  0  0  0  0  0  0  0  0  0  0  0
  -14.3380  -32.4930   56.5750 H   0  0  0  0  0  0  0  0  0  0  0  0
  -13.8560  -31.4980   57.3290 C   0  0  0  0  0  0  0  0  0  0  0  0
  -14.5450  -31.1250   58.6080 C   0  0  0  0  0  0  0  0  0  0  0  0
  -13.7570  -31.0150   59.8800 C   0  0  0  0  0  0  0  0  0  0  0  0
  -12.2800  -31.2780   59.8720 C   0  0  0  0  0  0  0  0  0  0  0  0
  -11.5910  -31.6500   58.5930 C   0  0  0  0  0  0  0  0  0  0  0  0
  -10.1140  -31.9120   58.5850 F   0  0  0  0  0  0  0  0  0  0  0  0
  -12.3790  -31.7600   57.3210 C   0  0  0  0  0  0  0  0  0  0  0  0
  -15.5610  -30.9450   58.6140 H   0  0  0  0  0  0  0  0  0  0  0  0
  -14.2310  -30.7590   60.7600 H   0  0  0  0  0  0  0  0  0  0  0  0
  -11.7380  -31.2020   60.7470 H   0  0  0  0  0  0  0  0  0  0  0  0
  -11.9050  -32.0160   56.4410 H   0  0  0  0  0  0  0  0  0  0  0  0
  -27.3350  -30.4280   53.8110 C   0  0  0  0  0  1  0  0  0  0  0  0
  -28.3720  -29.6490   54.5650 C   0  0  0  0  0  3  0  0  0  0  0  0
  -27.6930  -28.4750   55.2060 C   0  0  0  0  0  0  0  0  0  0  0  0
  -26.2370  -28.5290   54.8500 C   0  0  0  0  0  0  0  0  0  0  0  0
  -26.0160  -29.7350   53.9870 O   0  0  0  0  0  1  0  0  0  0  0  0
  -29.3750  -29.8800   54.6300 H   0  0  0  0  0  0  0  0  0  0  0  0
  -28.1480  -27.7570   55.7910 H   0  0  0  0  0  0  0  0  0  0  0  0
  -27.5750  -31.6800   53.0200 C   0  0  0  0  0  2  0  0  0  0  0  0
  -28.4890  -32.2210   53.1390 H   0  0  0  0  0  0  0  0  0  0  0  0
  -28.3180  -31.3280   53.7030 H   0  0  0  0  0  0  0  0  0  0  0  0
  -26.5310  -32.1720   52.0610 N   0  0  0  0  0  1  0  0  0  0  0  0
  -26.5250  -31.8360   51.0980 H   0  0  0  0  0  0  0  0  0  0  0  0
  -25.4990  -33.1600   52.5190 C   0  0  0  0  0  2  0  0  0  0  0  0
  -25.7600  -33.9190   53.2260 H   0  0  0  0  0  0  0  0  0  0  0  0
  -26.4970  -33.2150   52.8990 H   0  0  0  0  0  0  0  0  0  0  0  0
  -24.0990  -33.0820   51.9850 C   0  0  0  0  0  3  0  0  0  0  0  0
  -23.9280  -33.0840   50.9290 H   0  0  0  0  0  0  0  0  0  0  0  0
  -24.9260  -33.1390   51.3100 H   0  0  0  0  0  0  0  0  0  0  0  0
  -22.9390  -33.0010   52.9330 S   0  0  1  0  0  0  0  0  0  0  0  0
  -22.7230  -34.4790   52.7950 O   0  0  0  0  0  0  0  0  0  0  0  0
  -23.1550  -31.5230   53.0710 O   0  0  0  0  0  0  0  0  0  0  0  0
  -21.7800  -32.9200   53.8810 C   0  0  0  0  0  0  0  0  0  0  0  0
  -21.4990  -31.9780   54.3050 H   0  0  0  0  0  0  0  0  0  0  0  0
  -21.2330  -33.8040   54.1340 H   0  0  0  0  0  0  0  0  0  0  0  0
  -20.9520  -32.8620   54.5580 H   0  0  0  0  0  0  0  0  0  0  0  0
  1 11  2  0
  1  2  1  0
  2  3  2  0
  3  4  1  0
  3 13  1  0
  4  5  1  0
  5  6  2  0
  6 14  1  0
  7  6  1  0
  8  7  2  0
  9 17  1  0
  9  8  1  0
 10  8  1  0
 10  4  2  0
 11 10  1  0
 12  2  1  0
 15  9  1  0
 16 11  1  0
 17 22  1  0
 18 19  1  0
 18 17  2  0
 19 20  2  0
 20 30  1  0
 20 21  1  0
 21 26  1  0
 22 21  2  0
 22 25  1  0
 23 18  1  0
 24 19  1  0
 26 27  1  0
 26 29  1  0
 28 26  1  0
 30 31  1  0
 31 33  1  0
 31 34  1  0
 32 31  1  0
 34 35  1  0
 35 41  1  0
 35 36  2  0
 36 42  1  0
 37 36  1  0
 37 43  1  0
 38 37  2  0
 39 38  1  0
 40 34  2  0
 40 38  1  0
 44 40  1  0
 45 46  1  0
 46 50  1  0
 46 47  1  0
 47 51  1  0
 48 47  2  0
 48  1  1  0
 49 48  1  0
 52 53  1  0
 52 54  1  0
 56 55  1  0
 57 59  1  0
 57 58  1  0
 60 63  1  0
 61 60  1  0
 62 60  1  0
 63 65  2  0
 63 66  1  0
 64 63  2  0
 66 68  1  0
 66 67  1  0
 66 69  1  0
M  END
>  <minimizedAffinity>  (156) 
-12.3668575

$$$$

     RDKit          3D

 45 48  0  0  0  0  0  0  0  0999 V2000
  -24.0500  -28.1790   54.7990 C   0  0  0  0  0  0  0  0  0  0  0  0
  -25.5230  -28.3240   55.0420 C   0  0  0  0  0  0  0  0  0  0  0  0
  -26.2920  -27.2060   55.6810 C   0  0  0  0  0  0  0  0  0  0  0  0
  -25.5870  -25.9430   56.0780 C   0  0  0  0  0  0  0  0  0  0  0  0
  -24.1140  -25.7970   55.8350 C   0  0  0  0  0  0  0  0  0  0  0  0
  -23.3460  -26.9150   55.1950 C   0  0  0  0  0  0  0  0  0  0  0  0
  -26.0080  -29.1940   54.7690 H   0  0  0  0  0  0  0  0  0  0  0  0
  -26.1160  -25.1730   56.5180 H   0  0  0  0  0  0  0  0  0  0  0  0
  -27.7650  -27.3520   55.9240 C   0  0  0  0  0  0  0  0  0  0  0  0
  -28.7100  -27.4530   54.7640 C   0  0  0  0  0  0  0  0  0  0  0  0
  -30.1830  -27.5990   55.0070 C   0  0  0  0  0  0  0  0  0  0  0  0
  -30.7110  -27.6420   56.4100 C   0  0  0  0  0  0  0  0  0  0  0  0
  -29.7660  -27.5410   57.5700 C   0  0  0  0  0  0  0  0  0  0  0  0
  -28.2930  -27.3950   57.3270 N   0  0  0  0  0  0  0  0  0  0  0  0
  -28.3460  -27.4230   53.7980 H   0  0  0  0  0  0  0  0  0  0  0  0
  -30.8330  -27.6690   54.2080 H   0  0  0  0  0  0  0  0  0  0  0  0
  -31.7240  -27.7420   56.5770 H   0  0  0  0  0  0  0  0  0  0  0  0
  -30.1290  -27.5710   58.5360 H   0  0  0  0  0  0  0  0  0  0  0  0
  -23.2810  -29.2970   54.1590 C   0  0  0  0  0  0  0  0  0  0  0  0
  -23.7840  -30.1980   53.8760 H   0  0  0  0  0  0  0  0  0  0  0  0
  -22.2300  -29.1930   53.9860 H   0  0  0  0  0  0  0  0  0  0  0  0
  -22.7330  -30.0950   53.7030 H   0  0  0  0  0  0  0  0  0  0  0  0
  -23.4100  -24.5340   56.2310 C   0  0  0  0  0  0  0  0  0  0  0  0
  -22.3590  -24.4300   56.0580 H   0  0  0  0  0  0  0  0  0  0  0  0
  -23.9580  -23.7360   56.6880 H   0  0  0  0  0  0  0  0  0  0  0  0
  -22.9070  -23.6320   56.5140 H   0  0  0  0  0  0  0  0  0  0  0  0
  -21.8730  -26.7700   54.9520 C   0  0  0  0  0  0  0  0  0  0  0  0
  -20.8920  -27.2540   55.9790 C   0  0  0  0  0  0  0  0  0  0  0  0
  -21.5340  -26.3370   54.0790 H   0  0  0  0  0  0  0  0  0  0  0  0
  -21.2310  -27.6870   56.8530 H   0  0  0  0  0  0  0  0  0  0  0  0
  -19.4190  -27.1080   55.7360 C   0  0  0  0  0  0  0  0  0  0  0  0
  -18.8120  -25.7430   55.6040 C   0  0  0  0  0  0  0  0  0  0  0  0
  -17.3390  -25.5980   55.3610 N   0  0  0  0  0  0  0  0  0  0  0  0
  -16.4730  -26.8180   55.2500 C   0  0  0  0  0  0  0  0  0  0  0  0
  -17.0800  -28.1830   55.3820 C   0  0  0  0  0  0  0  0  0  0  0  0
  -18.5530  -28.3280   55.6250 C   0  0  0  0  0  0  0  0  0  0  0  0
  -19.4070  -24.9040   55.6810 H   0  0  0  0  0  0  0  0  0  0  0  0
  -15.4590  -26.7180   55.0830 H   0  0  0  0  0  0  0  0  0  0  0  0
  -18.9710  -29.2680   55.7150 H   0  0  0  0  0  0  0  0  0  0  0  0
  -16.2140  -29.4030   55.2710 C   0  0  0  0  0  0  0  0  0  0  0  0
  -16.5690  -30.6740   54.5570 N   0  0  0  0  0  0  0  0  0  0  0  0
  -15.4160  -31.6230   54.6990 N   0  0  0  0  0  2  0  0  0  0  0  0
  -14.3480  -30.9380   55.5000 N   0  0  0  0  0  0  0  0  0  0  0  0
  -14.8410  -29.5660   55.8530 N   0  0  0  0  0  2  0  0  0  0  0  0
  -13.4770  -31.3210   55.7500 H   0  0  0  0  0  0  0  0  0  0  0  0
  1  2  2  0
  1  6  1  0
  2  3  1  0
  3  9  1  0
  3  4  2  0
  4  8  1  0
  5  4  1  0
  5 23  1  0
  6  5  2  0
  7  2  1  0
  9 14  1  0
 10 11  1  0
 10  9  2  0
 11 12  2  0
 12 17  1  0
 12 13  1  0
 13 18  1  0
 14 13  2  0
 15 10  1  0
 16 11  1  0
 19  1  1  0
 20 19  1  0
 21 19  1  0
 22 19  1  0
 23 26  1  0
 23 25  1  0
 24 23  1  0
 27  6  1  0
 27 28  2  0
 28 30  1  0
 29 27  1  0
 31 28  1  0
 32 37  1  0
 32 31  2  0
 33 32  1  0
 34 33  2  0
 34 35  1  0
 35 36  2  0
 36 39  1  0
 36 31  1  0
 38 34  1  0
 40 35  1  0
 40 44  1  0
 41 42  1  0
 41 40  2  0
 42 43  1  0
 43 45  1  0
 43 44  1  0
M  END
>  <minimizedAffinity>  (157) 
-9.41428661

$$$$

     RDKit          3D

 61 58  0  0  0  0  0  0  0  0999 V2000
  -24.2690  -28.3470   55.0410 C   0  0  0  0  0  0  0  0  0  0  0  0
  -23.7650  -29.5810   54.3540 N   0  0  0  0  0  0  0  0  0  0  0  0
  -22.2680  -29.5030   54.3000 C   0  0  0  0  0  0  0  0  0  0  0  0
  -21.8470  -28.2200   54.9530 C   0  0  0  0  0  0  0  0  0  0  0  0
  -23.0840  -27.5060   55.4110 N   0  0  0  0  0  0  0  0  0  0  0  0
  -23.1120  -26.6370   55.8740 H   0  0  0  0  0  0  0  0  0  0  0  0
  -20.4370  -27.7370   55.1190 C   0  0  0  0  0  0  0  0  0  0  0  0
  -20.1460  -26.2650   55.1460 C   0  0  0  0  0  0  0  0  0  0  0  0
  -18.7360  -25.7820   55.3130 C   0  0  0  0  0  0  0  0  0  0  0  0
  -17.6160  -26.7700   55.4520 C   0  0  0  0  0  3  0  0  0  0  0  0
  -17.9060  -28.2420   55.4260 C   0  0  0  0  0  0  0  0  0  0  0  0
  -19.3170  -28.7250   55.2590 C   0  0  0  0  0  0  0  0  0  0  0  0
  -16.6070  -28.9730   55.5850 C   0  0  0  0  0  3  0  0  0  0  0  0
  -15.5130  -27.9540   55.7110 C   0  0  0  0  0  2  0  0  0  0  0  0
  -16.1370  -26.5930   55.6290 C   0  0  0  0  0 15  0  0  0  0  0  0
  -15.4100  -25.2830   55.7090 N   0  0  0  0  0  1  0  0  0  0  0  0
  -20.9170  -25.5860   55.0500 H   0  0  0  0  0  0  0  0  0  0  0  0
  -18.5360  -24.7700   55.3310 H   0  0  0  0  0  0  0  0  0  0  0  0
  -19.5170  -29.7370   55.2410 H   0  0  0  0  0  0  0  0  0  0  0  0
  -16.4820  -30.0360   55.6060 H   0  0  0  0  0  0  0  0  0  0  0  0
  -15.6100  -29.3430   55.7070 H   0  0  0  0  0  0  0  0  0  0  0  0
  -14.4710  -28.1620   55.8370 H   0  0  0  0  0  0  0  0  0  0  0  0
  -14.8560  -27.1140   55.7850 H   0  0  0  0  0  0  0  0  0  0  0  0
  -13.9200  -25.2620   55.8870 O   0  0  0  0  0  0  0  0  0  0  0  0
  -13.4660  -24.4450   55.9370 H   0  0  0  0  0  0  0  0  0  0  0  0
  -28.5810  -27.3420   55.8480 C   0  0  0  0  0  3  0  0  0  0  0  0
  -28.1910  -28.7470   55.4910 C   0  0  0  0  0  0  0  0  0  0  0  0
  -26.7550  -29.0810   55.2220 C   0  0  0  0  0  0  0  0  0  0  0  0
  -25.7060  -28.0120   55.3100 C   0  0  0  0  0  0  0  0  0  0  0  0
  -26.0950  -26.6070   55.6670 C   0  0  0  0  0  0  0  0  0  0  0  0
  -27.5330  -26.2740   55.9360 C   0  0  0  0  0  0  0  0  0  0  0  0
  -28.9130  -29.4820   55.4300 H   0  0  0  0  0  0  0  0  0  0  0  0
  -26.4870  -30.0480   54.9760 H   0  0  0  0  0  0  0  0  0  0  0  0
  -25.3740  -25.8720   55.7270 H   0  0  0  0  0  0  0  0  0  0  0  0
  -27.8000  -25.3070   56.1810 H   0  0  0  0  0  0  0  0  0  0  0  0
  -30.0180  -27.0080   56.1170 O   0  0  0  0  0 15  0  0  0  0  0  0
  -30.5930  -27.2170   57.4860 C   0  0  0  0  0  2  0  0  0  0  0  0
  -30.7350  -26.3820   58.1400 H   0  0  0  0  0  0  0  0  0  0  0  0
  -30.3250  -26.2330   57.1640 H   0  0  0  0  0  0  0  0  0  0  0  0
  -30.9690  -28.5970   57.9390 C   0  0  0  0  0  3  0  0  0  0  0  0
  -31.7310  -29.1410   57.4210 H   0  0  0  0  0  0  0  0  0  0  0  0
  -31.4630  -28.1560   57.0980 H   0  0  0  0  0  0  0  0  0  0  0  0
  -30.2770  -29.2140   59.1180 N   0  0  0  0  0  0  0  0  0  0  0  0
  -29.2280  -30.2650   58.9060 C   0  0  0  0  0  0  0  0  0  0  0  0
  -28.7350  -30.7060   59.7470 H   0  0  0  0  0  0  0  0  0  0  0  0
  -28.9730  -30.5750   57.9140 H   0  0  0  0  0  0  0  0  0  0  0  0
  -28.4790  -31.0150   58.7560 H   0  0  0  0  0  0  0  0  0  0  0  0
  -30.6350  -28.7810   60.5090 C   0  0  0  0  0  0  0  0  0  0  0  0
  -31.3830  -28.0310   60.6600 H   0  0  0  0  0  0  0  0  0  0  0  0
  -30.1420  -29.2210   61.3500 H   0  0  0  0  0  0  0  0  0  0  0  0
  -30.8900  -28.4720   61.5010 H   0  0  0  0  0  0  0  0  0  0  0  0
  -21.3530  -30.5270   53.6980 C   0  0  0  0  0  0  0  0  0  0  0  0
  -20.4440  -30.1500   52.5660 C   0  0  0  0  0  0  0  0  0  0  0  0
  -19.5290  -31.1730   51.9640 C   0  0  0  0  0  0  0  0  0  0  0  0
  -19.5220  -32.5770   52.4940 N   0  0  0  0  0  0  0  0  0  0  0  0
  -20.4310  -32.9560   53.6260 C   0  0  0  0  0  0  0  0  0  0  0  0
  -21.3460  -31.9310   54.2280 C   0  0  0  0  0  0  0  0  0  0  0  0
  -20.4480  -29.1840   52.2020 H   0  0  0  0  0  0  0  0  0  0  0  0
  -18.9030  -30.9130   51.1850 H   0  0  0  0  0  0  0  0  0  0  0  0
  -20.4260  -33.9210   53.9900 H   0  0  0  0  0  0  0  0  0  0  0  0
  -21.9710  -32.1920   55.0070 H   0  0  0  0  0  0  0  0  0  0  0  0
  1 29  1  0
  1  5  1  0
  2  1  2  0
  3  2  1  0
  3  4  2  0
  4  7  1  0
  4  5  1  0
  5  6  1  0
  7  8  2  0
  7 12  1  0
  8  9  1  0
  9 18  1  0
  9 10  2  0
 11 10  1  0
 11 13  1  0
 12 11  2  0
 13 20  1  0
 13 21  1  0
 14 23  1  0
 14 22  1  0
 16 24  1  0
 17  8  1  0
 19 12  1  0
 24 25  1  0
 26 31  1  0
 27 26  2  0
 28 29  2  0
 28 27  1  0
 29 30  1  0
 30 34  1  0
 30 31  2  0
 31 35  1  0
 32 27  1  0
 33 28  1  0
 37 38  1  0
 39 37  1  0
 40 43  1  0
 41 40  1  0
 42 40  1  0
 43 48  1  0
 44 43  1  0
 44 45  1  0
 46 44  1  0
 47 44  1  0
 48 49  1  0
 48 50  1  0
 48 51  1  0
 52 57  1  0
 52  3  1  0
 53 52  2  0
 54 55  2  0
 54 53  1  0
 55 56  1  0
 56 60  1  0
 56 57  2  0
 57 61  1  0
 58 53  1  0
 59 54  1  0
M  END
>  <minimizedAffinity>  (158) 
-9.62223625

$$$$

     RDKit          3D

 65 66  0  0  1  0  0  0  0  0999 V2000
  -17.0390  -28.7020   54.6640 C   0  0  0  0  0  0  0  0  0  0  0  0
  -17.7810  -27.7540   55.5590 C   0  0  0  0  0  0  0  0  0  0  0  0
  -19.2720  -27.6340   55.4510 C   0  0  0  0  0  3  0  0  0  0  0  0
  -20.0210  -28.4610   54.4490 C   0  0  0  0  0  0  0  0  0  0  0  0
  -19.2790  -29.4090   53.5540 C   0  0  0  0  0  0  0  0  0  0  0  0
  -17.7880  -29.5290   53.6620 C   0  0  0  0  0  0  0  0  0  0  0  0
  -21.5130  -28.3410   54.3410 N   0  0  0  0  0  0  0  0  0  0  0  0
  -22.2620  -29.1680   53.3390 C   0  0  0  0  0  0  0  0  0  0  0  0
  -21.5190  -30.1160   52.4440 O   0  0  0  0  0  0  0  0  0  0  0  0
  -22.2550  -27.3930   55.2360 C   0  0  0  0  0  3  0  0  0  0  0  0
  -21.5060  -26.5660   56.2390 C   0  0  0  0  0  2  0  0  0  0  0  0
  -20.0150  -26.6860   56.3460 C   0  0  0  0  0  2  0  0  0  0  0  0
  -17.2660  -27.1850   56.2480 H   0  0  0  0  0  0  0  0  0  0  0  0
  -19.7940  -29.9780   52.8650 H   0  0  0  0  0  0  0  0  0  0  0  0
  -23.3190  -27.3070   55.1600 H   0  0  0  0  0  0  0  0  0  0  0  0
  -22.7850  -26.7170   55.8750 H   0  0  0  0  0  0  0  0  0  0  0  0
  -22.0360  -25.8890   56.8770 H   0  0  0  0  0  0  0  0  0  0  0  0
  -20.9720  -25.9750   56.9540 H   0  0  0  0  0  0  0  0  0  0  0  0
  -19.4810  -26.0960   57.0610 H   0  0  0  0  0  0  0  0  0  0  0  0
  -18.9510  -26.7720   56.4230 H   0  0  0  0  0  0  0  0  0  0  0  0
  -17.0450  -30.4770   52.7670 N   0  0  0  0  0  0  0  0  0  0  0  0
  -16.3880  -31.6950   53.3450 C   0  0  0  0  0  0  0  0  0  0  0  0
  -16.4740  -31.9650   54.8180 N   0  0  0  0  0  0  0  0  0  0  0  0
  -15.8160  -33.1830   55.3960 C   0  0  0  0  0  3  0  0  0  0  0  0
  -15.0740  -34.1310   54.5010 C   0  0  0  0  0  0  0  0  0  0  0  0
  -14.3320  -35.4040   54.7830 C   0  0  0  0  0  0  0  0  0  0  0  0
  -13.7880  -35.9210   53.4830 C   0  0  0  0  0  0  0  0  0  0  0  0
  -14.1940  -34.9670   52.3990 N   0  0  0  0  0  0  0  0  0  0  0  0
  -14.9890  -33.8610   53.0280 C   0  0  0  0  0  0  0  0  0  0  0  0
  -15.6460  -32.6430   52.4500 N   0  0  0  0  0  2  0  0  0  0  0  0
  -16.9890  -30.2990   51.8010 H   0  0  0  0  0  0  0  0  0  0  0  0
  -14.2160  -35.8470   55.7070 H   0  0  0  0  0  0  0  0  0  0  0  0
  -13.2320  -36.7810   53.3580 H   0  0  0  0  0  0  0  0  0  0  0  0
  -13.9770  -35.0510   51.4430 H   0  0  0  0  0  0  0  0  0  0  0  0
  -15.9020  -33.4540   56.8690 N   0  0  0  0  0  0  0  0  0  0  0  0
  -16.5080  -34.1510   57.2070 H   0  0  0  0  0  0  0  0  0  0  0  0
  -15.0620  -32.6620   57.8270 C   0  0  0  0  0  0  0  0  0  0  0  0
  -15.5010  -31.4450   58.5870 C   0  0  0  0  0  0  0  0  0  0  0  0
  -14.3450  -30.9790   59.4220 C   0  0  0  0  0  0  0  0  0  0  0  0
  -13.1930  -31.9080   59.1790 S   0  0  0  0  0  0  0  0  0  0  0  0
  -13.6350  -32.9480   58.1930 C   0  0  0  0  0  0  0  0  0  0  0  0
  -16.4340  -31.0060   58.5420 H   0  0  0  0  0  0  0  0  0  0  0  0
  -14.3440  -30.1620   60.0540 H   0  0  0  0  0  0  0  0  0  0  0  0
  -12.7990  -34.0750   57.6660 C   0  0  0  0  0  0  0  0  0  0  0  0
  -11.8930  -33.8510   56.4910 N   0  0  0  0  0  0  0  0  0  0  0  0
  -12.8690  -35.4270   58.3120 O   0  0  0  0  0  0  0  0  0  0  0  0
  -11.3440  -34.5910   56.1450 H   0  0  0  0  0  0  0  0  0  0  0  0
  -11.8470  -32.9630   56.0670 H   0  0  0  0  0  0  0  0  0  0  0  0
  -23.7530  -29.0480   53.2320 C   0  0  0  0  0  0  0  0  0  0  0  0
  -24.1850  -28.3020   52.5970 H   0  0  0  0  0  0  0  0  0  0  0  0
  -24.8170  -28.9620   53.1550 H   0  0  0  0  0  0  0  0  0  0  0  0
  -24.6380  -29.9720   54.0140 N   0  0  0  0  0  0  0  0  0  0  0  0
  -25.3000  -29.4920   55.2710 C   0  0  0  0  0  0  0  0  0  0  0  0
  -25.9310  -30.1510   55.8290 H   0  0  0  0  0  0  0  0  0  0  0  0
  -25.1400  -28.4890   55.6110 H   0  0  0  0  0  0  0  0  0  0  0  0
  -25.7720  -29.1490   56.1690 H   0  0  0  0  0  0  0  0  0  0  0  0
  -24.8620  -31.3770   53.5380 C   0  0  0  0  0  0  0  0  0  0  0  0
  -24.3900  -31.7200   52.6410 H   0  0  0  0  0  0  0  0  0  0  0  0
  -25.4930  -32.0360   54.0960 H   0  0  0  0  0  0  0  0  0  0  0  0
  -25.0220  -32.3790   53.1980 H   0  0  0  0  0  0  0  0  0  0  0  0
  -15.5480  -28.8220   54.7710 O   0  0  0  0  0  0  0  0  0  0  0  0
  -14.9230  -29.2780   56.0570 C   0  0  0  0  0  0  0  0  0  0  0  0
  -15.5400  -29.5170   56.8970 H   0  0  0  0  0  0  0  0  0  0  0  0
  -13.8580  -29.3630   56.1330 H   0  0  0  0  0  0  0  0  0  0  0  0
  -14.4770  -29.6030   56.9730 H   0  0  0  0  0  0  0  0  0  0  0  0
  1 61  1  0
  1  2  1  0
  2 13  1  0
  3  2  2  0
  4  3  1  0
  5  6  1  0
  5  4  2  0
  6  1  2  0
  7  4  1  0
  7 10  1  0
  8  7  1  0
  9  8  2  0
 10 16  1  0
 11 17  1  0
 11 18  1  0
 12 20  1  0
 12 19  1  0
 14  5  1  0
 15 10  1  0
 21 22  1  0
 21  6  1  0
 22 23  2  0
 23 24  1  0
 24 35  1  0
 25 26  1  0
 25 24  1  0
 26 32  1  0
 27 26  2  0
 28 29  1  0
 28 27  1  0
 29 25  2  0
 30 29  1  0
 30 22  1  0
 31 21  1  0
 33 27  1  0
 34 28  1  0
 35 36  1  0
 35 37  1  0
 37 41  2  0
 37 38  1  0
 38 39  2  0
 39 43  1  0
 40 39  1  0
 41 40  1  0
 42 38  1  0
 44 41  1  0
 44 46  2  0
 45 44  1  0
 47 45  1  0
 48 45  1  0
 49  8  1  0
 49 52  1  0
 50 49  1  0
 51 49  1  0
 52 53  1  0
 53 55  1  0
 53 54  1  0
 53 56  1  0
 57 52  1  0
 57 59  1  0
 58 57  1  0
 60 57  1  0
 61 62  1  0
 62 64  1  0
 62 63  1  0
 62 65  1  0
M  END
>  <minimizedAffinity>  (159) 
-8.65590477

$$$$

     RDKit          3D

 54 56  0  0  0  0  0  0  0  0999 V2000
  -17.9790  -31.5750   55.0300 C   0  0  0  0  0  0  0  0  0  0  0  0
  -18.8180  -32.5860   54.3080 N   0  0  0  0  0  0  0  0  0  0  0  0
  -19.8620  -31.8480   53.5240 N   0  0  0  0  0  0  0  0  0  0  0  0
  -20.9650  -32.3230   52.6250 N   0  0  0  0  0  0  0  0  0  0  0  0
  -21.8740  -31.3290   51.9630 C   0  0  0  0  0  0  0  0  0  0  0  0
  -21.6800  -29.8610   52.2010 C   0  0  0  0  0  0  0  0  0  0  0  0
  -20.5770  -29.3860   53.1000 C   0  0  0  0  0  0  0  0  0  0  0  0
  -19.6690  -30.3800   53.7620 C   0  0  0  0  0  0  0  0  0  0  0  0
  -18.5040  -30.2110   54.6930 C   0  0  0  0  0  0  0  0  0  0  0  0
  -22.6320  -31.6560   51.3440 H   0  0  0  0  0  0  0  0  0  0  0  0
  -22.3040  -29.1780   51.7460 H   0  0  0  0  0  0  0  0  0  0  0  0
  -20.4430  -28.3760   53.2640 H   0  0  0  0  0  0  0  0  0  0  0  0
  -14.4950  -32.4720   57.7330 C   0  0  0  0  0  0  0  0  0  0  0  0
  -15.8550  -32.2260   58.3180 C   0  0  0  0  0  0  0  0  0  0  0  0
  -17.0150  -31.9270   57.4170 C   0  0  0  0  0  0  0  0  0  0  0  0
  -16.8180  -31.8740   55.9310 C   0  0  0  0  0  0  0  0  0  0  0  0
  -15.4580  -32.1200   55.3460 C   0  0  0  0  0  0  0  0  0  0  0  0
  -14.2970  -32.4190   56.2470 C   0  0  0  0  0  0  0  0  0  0  0  0
  -15.9900  -32.2630   59.3400 H   0  0  0  0  0  0  0  0  0  0  0  0
  -17.9510  -31.7580   57.8200 H   0  0  0  0  0  0  0  0  0  0  0  0
  -15.3220  -32.0830   54.3240 H   0  0  0  0  0  0  0  0  0  0  0  0
  -13.3620  -32.5880   55.8450 H   0  0  0  0  0  0  0  0  0  0  0  0
  -13.3330  -32.7720   58.6340 O   0  0  0  0  0  0  0  0  0  0  0  0
  -12.7440  -31.6870   59.4840 C   0  0  0  0  0  0  0  0  0  0  0  0
  -11.9150  -31.9000   60.1260 H   0  0  0  0  0  0  0  0  0  0  0  0
  -13.1520  -30.6980   59.4490 H   0  0  0  0  0  0  0  0  0  0  0  0
  -12.3230  -30.9120   60.0910 H   0  0  0  0  0  0  0  0  0  0  0  0
  -17.9610  -28.9070   55.1970 C   0  0  0  0  0  0  0  0  0  0  0  0
  -16.4800  -28.7200   55.3480 C   0  0  0  0  0  0  0  0  0  0  0  0
  -15.9370  -27.4160   55.8530 C   0  0  0  0  0  0  0  0  0  0  0  0
  -16.8740  -26.2990   56.2060 N   0  0  0  0  0  0  0  0  0  0  0  0
  -18.3540  -26.4870   56.0550 C   0  0  0  0  0  0  0  0  0  0  0  0
  -19.2910  -25.3700   56.4090 N   0  0  0  0  0  0  0  0  0  0  0  0
  -18.8980  -27.7900   55.5510 N   0  0  0  0  0  0  0  0  0  0  0  0
  -15.8350  -29.4880   55.1050 H   0  0  0  0  0  0  0  0  0  0  0  0
  -14.9180  -27.2870   55.9570 H   0  0  0  0  0  0  0  0  0  0  0  0
  -18.9350  -24.5150   56.7400 H   0  0  0  0  0  0  0  0  0  0  0  0
  -20.7720  -25.5570   56.2570 C   0  0  0  0  0  0  0  0  0  0  0  0
  -21.7020  -24.4030   56.4890 C   0  0  0  0  0  0  0  0  0  0  0  0
  -23.1820  -24.5900   56.3380 C   0  0  0  0  0  0  0  0  0  0  0  0
  -23.7330  -25.9320   55.9550 C   0  0  0  0  0  3  0  0  0  0  0  0
  -22.8040  -27.0860   55.7230 C   0  0  0  0  0  0  0  0  0  0  0  0
  -21.3230  -26.8990   55.8740 C   0  0  0  0  0  0  0  0  0  0  0  0
  -23.3550  -28.4270   55.3390 O   0  0  0  0  0  0  0  0  0  0  0  0
  -24.8350  -28.6140   55.1880 C   0  0  0  0  0  3  0  0  0  0  0  0
  -25.7650  -27.4600   55.4200 C   0  0  0  0  0  2  0  0  0  0  0  0
  -25.2140  -26.1190   55.8030 O   0  0  0  0  0 15  0  0  0  0  0  0
  -21.3220  -23.4800   56.7530 H   0  0  0  0  0  0  0  0  0  0  0  0
  -23.8220  -23.7960   56.4980 H   0  0  0  0  0  0  0  0  0  0  0  0
  -20.6830  -27.6930   55.7140 H   0  0  0  0  0  0  0  0  0  0  0  0
  -25.2280  -29.5720   54.9150 H   0  0  0  0  0  0  0  0  0  0  0  0
  -25.8910  -28.7480   55.0800 H   0  0  0  0  0  0  0  0  0  0  0  0
  -26.8210  -27.5940   55.3120 H   0  0  0  0  0  0  0  0  0  0  0  0
  -26.4280  -26.6370   55.5860 H   0  0  0  0  0  0  0  0  0  0  0  0
  1 16  1  0
  2  1  2  0
  3  8  1  0
  3  2  1  0
  4  3  1  0
  5  6  1  0
  5  4  2  0
  6  7  2  0
  7 12  1  0
  7  8  1  0
  8  9  2  0
  9  1  1  0
  9 28  1  0
 10  5  1  0
 11  6  1  0
 13 14  1  0
 13 23  1  0
 14 19  1  0
 15 20  1  0
 15 14  2  0
 16 15  1  0
 17 16  2  0
 17 18  1  0
 18 13  2  0
 21 17  1  0
 22 18  1  0
 23 24  1  0
 24 27  1  0
 24 25  1  0
 26 24  1  0
 28 29  1  0
 28 34  2  0
 29 30  2  0
 30 36  1  0
 30 31  1  0
 32 31  2  0
 32 33  1  0
 33 37  1  0
 34 32  1  0
 35 29  1  0
 38 33  1  0
 38 39  1  0
 39 48  1  0
 40 39  2  0
 40 49  1  0
 41 40  1  0
 42 43  1  0
 42 41  2  0
 43 38  2  0
 44 42  1  0
 45 44  1  0
 46 54  1  0
 50 43  1  0
 51 45  1  0
 52 45  1  0
 53 46  1  0
M  END
>  <minimizedAffinity>  (160) 
-10.017067

$$$$

     RDKit          3D

 63 57  0  0  0  0  0  0  0  0999 V2000
  -19.0350  -31.5990   54.5230 C   0  0  0  0  0  0  0  0  0  0  0  0
  -17.7440  -31.1810   55.1630 C   0  0  0  0  0  0  0  0  0  0  0  0
  -16.9970  -32.4210   55.5530 N   0  0  0  0  0  0  0  0  0  0  0  0
  -17.8260  -33.6060   55.1560 C   0  0  0  0  0  0  0  0  0  0  0  0
  -19.0850  -33.0990   54.5190 N   0  0  0  0  0  0  0  0  0  0  0  0
  -17.5730  -34.5970   55.2950 H   0  0  0  0  0  0  0  0  0  0  0  0
  -20.1990  -33.9420   53.9740 C   0  0  0  0  0  2  0  0  0  0  0  0
  -21.2640  -34.4640   54.8920 C   0  0  0  0  0  2  0  0  0  0  0  0
  -22.3790  -35.3070   54.3460 C   0  0  0  0  0  2  0  0  0  0  0  0
  -22.4280  -35.6270   52.8820 N   0  0  0  0  0  1  0  0  0  0  0  0
  -21.3640  -35.1060   51.9630 C   0  0  0  0  0  2  0  0  0  0  0  0
  -20.2490  -34.2620   52.5090 C   0  0  0  0  0  2  0  0  0  0  0  0
  -20.9940  -34.5430   53.5840 H   0  0  0  0  0  0  0  0  0  0  0  0
  -21.2290  -34.2360   55.9370 H   0  0  0  0  0  0  0  0  0  0  0  0
  -22.0240  -34.8370   55.5470 H   0  0  0  0  0  0  0  0  0  0  0  0
  -23.1370  -35.6800   55.0010 H   0  0  0  0  0  0  0  0  0  0  0  0
  -23.1730  -35.9080   53.9570 H   0  0  0  0  0  0  0  0  0  0  0  0
  -23.1850  -36.2000   52.5110 H   0  0  0  0  0  0  0  0  0  0  0  0
  -21.3990  -35.3340   50.9180 H   0  0  0  0  0  0  0  0  0  0  0  0
  -20.6040  -34.7330   51.3080 H   0  0  0  0  0  0  0  0  0  0  0  0
  -19.4900  -33.8900   51.8540 H   0  0  0  0  0  0  0  0  0  0  0  0
  -19.4540  -33.6610   52.8990 H   0  0  0  0  0  0  0  0  0  0  0  0
  -17.2830  -29.7690   55.3740 C   0  0  0  0  0  0  0  0  0  0  0  0
  -18.2780  -28.6470   55.3750 C   0  0  0  0  0  0  0  0  0  0  0  0
  -17.8160  -27.2360   55.5860 C   0  0  0  0  0  0  0  0  0  0  0  0
  -16.3600  -26.9460   55.7960 C   0  0  0  0  0  0  0  0  0  0  0  0
  -15.8990  -25.5340   56.0070 F   0  0  0  0  0  0  0  0  0  0  0  0
  -15.3640  -28.0690   55.7950 C   0  0  0  0  0  0  0  0  0  0  0  0
  -15.8260  -29.4800   55.5840 C   0  0  0  0  0  0  0  0  0  0  0  0
  -19.2800  -28.8460   55.2300 H   0  0  0  0  0  0  0  0  0  0  0  0
  -18.5010  -26.4640   55.5860 H   0  0  0  0  0  0  0  0  0  0  0  0
  -14.3620  -27.8690   55.9400 H   0  0  0  0  0  0  0  0  0  0  0  0
  -15.1410  -30.2520   55.5840 H   0  0  0  0  0  0  0  0  0  0  0  0
  -22.0780  -29.0560   54.3820 C   0  0  0  0  0  0  0  0  0  0  0  0
  -22.2010  -28.8430   52.9020 N   0  0  0  0  0  0  0  0  0  0  0  0
  -21.2690  -29.5480   51.9630 C   0  0  0  0  0  3  0  0  0  0  0  0
  -20.2130  -30.4670   52.5030 C   0  0  0  0  0  0  0  0  0  0  0  0
  -20.0900  -30.6810   53.9830 C   0  0  0  0  0  0  0  0  0  0  0  0
  -21.0230  -29.9750   54.9220 N   0  0  0  0  0  0  0  0  0  0  0  0
  -21.3530  -29.4020   50.9450 H   0  0  0  0  0  0  0  0  0  0  0  0
  -19.5720  -30.9530   51.8570 H   0  0  0  0  0  0  0  0  0  0  0  0
  -23.0100  -28.3500   55.3220 O   0  0  0  0  0  0  0  0  0  0  0  0
  -23.8270  -25.9210   55.7500 C   0  0  0  0  0 15  0  0  0  0  0  0
  -23.5410  -24.5100   56.1700 C   0  0  0  0  0  2  0  0  0  0  0  0
  -22.1540  -24.1160   56.5830 C   0  0  0  0  0  0  0  0  0  0  0  0
  -21.0520  -25.1340   56.5760 C   0  0  0  0  0  0  0  0  0  0  0  0
  -21.3370  -26.5450   56.1550 C   0  0  0  0  0  0  0  0  0  0  0  0
  -22.7250  -26.9390   55.7420 C   0  0  0  0  0  3  0  0  0  0  0  0
  -24.2990  -23.8090   56.1750 H   0  0  0  0  0  0  0  0  0  0  0  0
  -21.9570  -23.1450   56.8720 H   0  0  0  0  0  0  0  0  0  0  0  0
  -20.0980  -24.8630   56.8600 H   0  0  0  0  0  0  0  0  0  0  0  0
  -20.5790  -27.2460   56.1500 H   0  0  0  0  0  0  0  0  0  0  0  0
  -25.2140  -26.3140   55.3370 C   0  0  0  0  0  2  0  0  0  0  0  0
  -25.4580  -26.4040   54.2980 H   0  0  0  0  0  0  0  0  0  0  0  0
  -24.4680  -26.1230   54.5930 H   0  0  0  0  0  0  0  0  0  0  0  0
  -26.2590  -26.5820   56.3790 C   0  0  0  0  0  3  0  0  0  0  0  0
  -26.0170  -26.4870   57.4170 H   0  0  0  0  0  0  0  0  0  0  0  0
  -25.2710  -26.2960   56.6730 H   0  0  0  0  0  0  0  0  0  0  0  0
  -28.7380  -25.9570   55.9170 N   0  0  0  0  0  0  0  0  0  0  0  0
  -27.6450  -26.9820   55.9660 C   0  0  0  0  0  0  0  0  0  0  0  0
  -27.9360  -28.4080   55.6010 O   0  0  0  0  0  0  0  0  0  0  0  0
  -28.5470  -25.0210   56.1560 H   0  0  0  0  0  0  0  0  0  0  0  0
  -29.6470  -26.2200   55.6460 H   0  0  0  0  0  0  0  0  0  0  0  0
  1  2  2  0
  2 23  1  0
  2  3  1  0
  4  6  1  0
  4  3  2  0
  5  1  1  0
  5  4  1  0
  7  5  1  0
  8 15  1  0
  8 14  1  0
  9 16  1  0
 12 22  1  0
 13  7  1  0
 17  9  1  0
 18 10  1  0
 19 11  1  0
 20 11  1  0
 21 12  1  0
 23 24  2  0
 23 29  1  0
 24 25  1  0
 25 26  2  0
 26 27  1  0
 28 26  1  0
 28 32  1  0
 29 33  1  0
 29 28  2  0
 30 24  1  0
 31 25  1  0
 34 39  2  0
 34 42  1  0
 35 34  2  0
 36 37  1  0
 36 35  1  0
 37 38  2  0
 38  1  1  0
 38 39  1  0
 40 36  1  0
 41 37  1  0
 42 48  1  0
 44 49  1  0
 44 45  1  0
 45 50  1  0
 46 45  2  0
 46 51  1  0
 47 46  1  0
 48 47  2  0
 52 47  1  0
 54 53  1  0
 55 53  1  0
 56 58  1  0
 56 57  1  0
 59 60  1  0
 59 62  1  0
 60 56  1  0
 61 60  2  0
 63 59  1  0
M  END
>  <minimizedAffinity>  (161) 
-10.0901623

$$$$

     RDKit          3D

 55 48  0  0  0  0  0  0  0  0999 V2000
  -18.8180  -31.2200   54.4530 N   0  0  0  0  0 15  0  0  0  0  0  0
  -20.3120  -31.1630   54.3240 C   0  0  0  0  0  2  0  0  0  0  0  0
  -20.7620  -29.7910   54.7270 N   0  0  0  0  0  2  0  0  0  0  0  0
  -19.5460  -28.9970   55.1050 C   0  0  0  0  0  0  0  0  0  0  0  0
  -19.3780  -27.5850   55.5820 C   0  0  0  0  0  0  0  0  0  0  0  0
  -18.0080  -27.0560   55.8900 N   0  0  0  0  0  0  0  0  0  0  0  0
  -16.8070  -27.9380   55.7210 C   0  0  0  0  0  0  0  0  0  0  0  0
  -16.9760  -29.3510   55.2440 C   0  0  0  0  0  0  0  0  0  0  0  0
  -18.3450  -29.8800   54.9370 C   0  0  0  0  0  3  0  0  0  0  0  0
  -15.8650  -27.5740   55.9330 H   0  0  0  0  0  0  0  0  0  0  0  0
  -21.1990  -32.2840   53.8710 C   0  0  0  0  0  0  0  0  0  0  0  0
  -21.0670  -33.7270   54.2610 N   0  0  0  0  0  0  0  0  0  0  0  0
  -22.1610  -34.4940   53.5790 O   0  0  0  0  0  0  0  0  0  0  0  0
  -22.9710  -33.5260   52.7680 N   0  0  0  0  0  0  0  0  0  0  0  0
  -22.3760  -32.1600   52.9480 C   0  0  0  0  0  0  0  0  0  0  0  0
  -22.8720  -30.8930   52.3180 N   0  0  0  0  0  0  0  0  0  0  0  0
  -22.4120  -30.0410   52.4980 H   0  0  0  0  0  0  0  0  0  0  0  0
  -23.6560  -30.9120   51.7230 H   0  0  0  0  0  0  0  0  0  0  0  0
  -17.9510  -32.4050   54.1530 C   0  0  0  0  0  3  0  0  0  0  0  0
  -17.5250  -32.5230   53.1780 H   0  0  0  0  0  0  0  0  0  0  0  0
  -18.1440  -31.6770   53.3930 H   0  0  0  0  0  0  0  0  0  0  0  0
  -17.6790  -33.4260   55.2180 C   0  0  0  0  0  0  0  0  0  0  0  0
  -18.1050  -33.3070   56.1930 H   0  0  0  0  0  0  0  0  0  0  0  0
  -17.0610  -34.2710   55.0040 H   0  0  0  0  0  0  0  0  0  0  0  0
  -17.4860  -34.1530   55.9780 H   0  0  0  0  0  0  0  0  0  0  0  0
  -20.5790  -26.7020   55.7510 C   0  0  0  0  0  0  0  0  0  0  0  0
  -21.7790  -25.8190   55.9200 C   0  0  0  0  0  0  0  0  0  0  0  0
  -22.9800  -24.9360   56.0890 C   0  0  0  0  0  0  0  0  0  0  0  0
  -22.0840  -23.7840   56.4320 C   0  0  0  0  0  0  0  0  0  0  0  0
  -21.0230  -23.9180   56.4510 H   0  0  0  0  0  0  0  0  0  0  0  0
  -22.5070  -22.8270   56.6590 H   0  0  0  0  0  0  0  0  0  0  0  0
  -21.4450  -22.9610   56.6780 H   0  0  0  0  0  0  0  0  0  0  0  0
  -23.8760  -26.0890   55.7450 C   0  0  0  0  0  0  0  0  0  0  0  0
  -24.9380  -25.9550   55.7270 H   0  0  0  0  0  0  0  0  0  0  0  0
  -23.4540  -27.0460   55.5180 H   0  0  0  0  0  0  0  0  0  0  0  0
  -24.5150  -26.9120   55.5000 H   0  0  0  0  0  0  0  0  0  0  0  0
  -24.1810  -24.0540   56.2580 O   0  0  0  0  0  0  0  0  0  0  0  0
  -24.0680  -23.1230   56.5050 H   0  0  0  0  0  0  0  0  0  0  0  0
  -15.7750  -30.2330   55.0760 O   0  0  0  0  0  1  0  0  0  0  0  0
  -15.1980  -30.9490   56.2610 C   0  0  0  0  0  2  0  0  0  0  0  0
  -15.8460  -31.3480   57.0130 H   0  0  0  0  0  0  0  0  0  0  0  0
  -14.7860  -31.4600   57.1060 H   0  0  0  0  0  0  0  0  0  0  0  0
  -13.7120  -31.1060   56.3920 C   0  0  0  0  0  1  0  0  0  0  0  0
  -12.9830  -31.6330   57.5910 C   0  0  0  0  0  2  0  0  0  0  0  0
  -11.5150  -31.6150   57.2870 C   0  0  0  0  0  2  0  0  0  0  0  0
  -11.3360  -31.0770   55.8990 C   0  0  0  0  0  2  0  0  0  0  0  0
  -12.6930  -30.7620   55.3450 N   0  0  0  0  0  1  0  0  0  0  0  0
  -14.3070  -31.3970   57.2310 H   0  0  0  0  0  0  0  0  0  0  0  0
  -13.4320  -31.9640   58.5050 H   0  0  0  0  0  0  0  0  0  0  0  0
  -12.3240  -31.9840   58.3580 H   0  0  0  0  0  0  0  0  0  0  0  0
  -10.7320  -31.9310   57.9450 H   0  0  0  0  0  0  0  0  0  0  0  0
  -10.5110  -31.5400   56.9210 H   0  0  0  0  0  0  0  0  0  0  0  0
  -10.4030  -30.9410   55.3920 H   0  0  0  0  0  0  0  0  0  0  0  0
  -11.3750  -30.6800   54.9060 H   0  0  0  0  0  0  0  0  0  0  0  0
  -12.8890  -30.3810   54.4190 H   0  0  0  0  0  0  0  0  0  0  0  0
  2  3  1  0
  3  4  1  0
  4  5  1  0
  5 26  1  0
  5  6  2  0
  7  6  1  0
  7 10  1  0
  8  7  2  0
  9  4  2  0
  9  8  1  0
 11 12  2  0
 11  2  1  0
 13 12  1  0
 14 15  2  0
 14 13  1  0
 15 11  1  0
 16 17  1  0
 16 15  1  0
 18 16  1  0
 19 22  1  0
 20 19  1  0
 21 19  1  0
 22 25  1  0
 22 23  1  0
 24 22  1  0
 26 27  3  0
 27 28  1  0
 28 37  1  0
 28 29  1  0
 29 30  1  0
 29 31  1  0
 29 32  1  0
 33 28  1  0
 34 33  1  0
 35 33  1  0
 36 33  1  0
 37 38  1  0
 39  8  1  0
 40 41  1  0
 40 42  1  0
 43 48  1  0
 44 50  1  0
 44 49  1  0
 45 51  1  0
 52 45  1  0
 53 46  1  0
 54 46  1  0
 55 47  1  0
M  END
>  <minimizedAffinity>  (162) 
-9.0802002

$$$$

     RDKit          3D

 64 63  0  0  0  0  0  0  0  0999 V2000
  -20.5160  -27.4560   55.5620 C   0  0  0  0  0  0  0  0  0  0  0  0
  -19.5420  -26.3910   55.9700 C   0  0  0  0  0  0  0  0  0  0  0  0
  -18.1570  -26.9450   55.8120 C   0  0  0  0  0  0  0  0  0  0  0  0
  -16.8030  -26.3500   56.0640 N   0  0  0  0  0  0  0  0  0  0  0  0
  -15.5680  -27.1620   55.8090 C   0  0  0  0  0  0  0  0  0  0  0  0
  -15.6860  -28.5690   55.3030 N   0  0  0  0  0  0  0  0  0  0  0  0
  -17.0400  -29.1650   55.0520 C   0  0  0  0  0  0  0  0  0  0  0  0
  -18.2750  -28.3530   55.3060 C   0  0  0  0  0  0  0  0  0  0  0  0
  -19.7340  -28.6690   55.1510 S   0  0  0  0  0  0  0  0  0  0  0  0
  -19.7830  -25.4440   56.3020 H   0  0  0  0  0  0  0  0  0  0  0  0
  -14.6360  -26.7530   55.9820 H   0  0  0  0  0  0  0  0  0  0  0  0
  -23.5050  -27.2060   55.5660 C   0  0  0  0  0  1  0  0  0  0  0  0
  -22.0110  -27.3310   55.5640 C   0  0  0  0  0  2  0  0  0  0  0  0
  -27.3620  -27.6160   55.3980 C   0  0  0  0  0  2  0  0  0  0  0  0
  -27.2400  -26.1610   55.7420 C   0  0  0  0  0  2  0  0  0  0  0  0
  -25.7800  -25.8300   55.8470 N   0  0  0  0  0  1  0  0  0  0  0  0
  -25.0000  -27.0810   55.5670 C   0  0  0  0  0  2  0  0  0  0  0  0
  -25.9780  -28.1850   55.2900 C   0  0  0  0  0  3  0  0  0  0  0  0
  -28.2720  -27.0650   55.5110 H   0  0  0  0  0  0  0  0  0  0  0  0
  -28.0510  -25.4790   55.8870 H   0  0  0  0  0  0  0  0  0  0  0  0
  -26.9860  -25.1500   55.9840 H   0  0  0  0  0  0  0  0  0  0  0  0
  -25.3870  -24.9150   56.0690 H   0  0  0  0  0  0  0  0  0  0  0  0
  -24.4390  -26.1970   55.7850 H   0  0  0  0  0  0  0  0  0  0  0  0
  -25.7310  -29.1990   55.0560 H   0  0  0  0  0  0  0  0  0  0  0  0
  -26.7940  -28.8550   55.1170 H   0  0  0  0  0  0  0  0  0  0  0  0
  -28.6430  -28.3700   55.1970 O   0  0  0  0  0  0  0  0  0  0  0  0
  -30.7810  -27.3500   54.1300 N   0  0  0  0  0  0  0  0  0  0  0  0
  -29.4900  -28.1020   53.9890 C   0  0  0  0  0  0  0  0  0  0  0  0
  -29.0470  -28.5840   52.6390 O   0  0  0  0  0  0  0  0  0  0  0  0
  -31.6280  -27.0820   52.9210 C   0  0  0  0  0  0  0  0  0  0  0  0
  -31.3120  -27.4260   51.9590 H   0  0  0  0  0  0  0  0  0  0  0  0
  -32.5490  -26.5460   53.0220 H   0  0  0  0  0  0  0  0  0  0  0  0
  -32.2320  -26.8900   52.0590 H   0  0  0  0  0  0  0  0  0  0  0  0
  -31.2240  -26.8670   55.4790 C   0  0  0  0  0  0  0  0  0  0  0  0
  -32.1450  -26.3310   55.5790 H   0  0  0  0  0  0  0  0  0  0  0  0
  -30.6200  -27.0590   56.3410 H   0  0  0  0  0  0  0  0  0  0  0  0
  -31.5410  -26.5230   56.4410 H   0  0  0  0  0  0  0  0  0  0  0  0
  -17.1580  -30.5720   54.5460 N   0  0  0  0  0  0  0  0  0  0  0  0
  -17.7740  -30.7780   53.8060 H   0  0  0  0  0  0  0  0  0  0  0  0
  -16.3390  -31.6640   55.1670 C   0  0  0  0  0  0  0  0  0  0  0  0
  -16.5940  -32.0780   56.5860 C   0  0  0  0  0  0  0  0  0  0  0  0
  -15.7740  -33.1700   57.2070 C   0  0  0  0  0  0  0  0  0  0  0  0
  -14.7000  -33.8470   56.4100 C   0  0  0  0  0  0  0  0  0  0  0  0
  -14.4440  -33.4330   54.9910 C   0  0  0  0  0  0  0  0  0  0  0  0
  -13.3700  -34.1100   54.1940 Cl  0  0  0  0  0  0  0  0  0  0  0  0
  -15.2640  -32.3410   54.3700 C   0  0  0  0  0  0  0  0  0  0  0  0
  -17.3330  -31.6120   57.1350 H   0  0  0  0  0  0  0  0  0  0  0  0
  -15.9500  -33.4550   58.1840 H   0  0  0  0  0  0  0  0  0  0  0  0
  -15.0880  -32.0560   53.3930 H   0  0  0  0  0  0  0  0  0  0  0  0
  -13.8800  -34.9390   57.0310 O   0  0  0  0  0  0  0  0  0  0  0  0
  -13.0000  -34.6390   58.2080 C   0  0  0  0  0  0  0  0  0  0  0  0
  -13.0690  -35.2350   59.0940 H   0  0  0  0  0  0  0  0  0  0  0  0
  -12.3710  -34.4250   59.0470 H   0  0  0  0  0  0  0  0  0  0  0  0
  -12.0210  -33.5040   58.1420 C   0  0  0  0  0  0  0  0  0  0  0  0
  -11.0250  -33.4360   57.0230 C   0  0  0  0  0  0  0  0  0  0  0  0
  -10.0470  -32.3010   56.9580 C   0  0  0  0  0  0  0  0  0  0  0  0
  -10.0650  -31.2330   58.0110 C   0  0  0  0  0  0  0  0  0  0  0  0
  -11.0610  -31.3010   59.1300 C   0  0  0  0  0  0  0  0  0  0  0  0
  -11.0800  -30.2330   60.1840 F   0  0  0  0  0  0  0  0  0  0  0  0
  -12.0400  -32.4360   59.1960 C   0  0  0  0  0  0  0  0  0  0  0  0
  -11.0120  -34.1710   56.2990 H   0  0  0  0  0  0  0  0  0  0  0  0
   -9.3610  -32.2550   56.1880 H   0  0  0  0  0  0  0  0  0  0  0  0
   -9.3920  -30.4520   57.9660 H   0  0  0  0  0  0  0  0  0  0  0  0
  -12.7260  -32.4830   59.9660 H   0  0  0  0  0  0  0  0  0  0  0  0
  1 13  1  0
  1  2  2  0
  2 10  1  0
  3  2  1  0
  3  4  1  0
  5 11  1  0
  5  4  2  0
  6  5  1  0
  7  6  2  0
  7  8  1  0
  8  3  2  0
  9  8  1  0
  9  1  1  0
 13 12  1  0
 14 19  1  0
 15 20  1  0
 15 21  1  0
 16 22  1  0
 17 23  1  0
 18 17  1  0
 24 18  1  0
 25 18  1  0
 26 14  1  0
 27 34  1  0
 28 27  1  0
 28 26  1  0
 29 28  2  0
 30 32  1  0
 30 27  1  0
 31 30  1  0
 33 30  1  0
 34 35  1  0
 34 36  1  0
 34 37  1  0
 38  7  1  0
 38 40  1  0
 39 38  1  0
 40 41  1  0
 41 47  1  0
 41 42  2  0
 42 48  1  0
 43 50  1  0
 43 42  1  0
 44 43  2  0
 45 44  1  0
 46 44  1  0
 46 40  2  0
 49 46  1  0
 50 51  1  0
 51 53  1  0
 51 52  1  0
 54 51  1  0
 54 60  1  0
 55 54  2  0
 56 55  1  0
 56 57  2  0
 57 58  1  0
 58 60  2  0
 58 59  1  0
 60 64  1  0
 61 55  1  0
 62 56  1  0
 63 57  1  0
M  END
>  <minimizedAffinity>  (163) 
-10.8002367

$$$$

     RDKit          3D

 42 41  0  0  0  0  0  0  0  0999 V2000
  -23.2040  -27.4930   55.3180 N   0  0  0  0  0 15  0  0  0  0  0  0
  -24.5620  -26.9100   55.5800 C   0  0  0  0  0  2  0  0  0  0  0  0
  -24.3770  -25.5120   56.0910 N   0  0  0  0  0  2  0  0  0  0  0  0
  -22.9040  -25.2300   56.1440 C   0  0  0  0  0  0  0  0  0  0  0  0
  -22.1300  -24.0170   56.5660 C   0  0  0  0  0  0  0  0  0  0  0  0
  -20.6310  -24.0270   56.5110 N   0  0  0  0  0  0  0  0  0  0  0  0
  -19.9060  -25.2510   56.0330 C   0  0  0  0  0  0  0  0  0  0  0  0
  -20.6810  -26.4640   55.6110 C   0  0  0  0  0  0  0  0  0  0  0  0
  -22.1800  -26.4540   55.6670 C   0  0  0  0  0  3  0  0  0  0  0  0
  -22.6280  -23.1750   56.8950 H   0  0  0  0  0  0  0  0  0  0  0  0
  -18.8750  -25.2580   55.9950 H   0  0  0  0  0  0  0  0  0  0  0  0
  -25.8740  -27.6050   55.3680 C   0  0  0  0  0  0  0  0  0  0  0  0
  -26.0600  -29.0550   55.0310 N   0  0  0  0  0  0  0  0  0  0  0  0
  -27.5330  -29.3180   54.9110 O   0  0  0  0  0  0  0  0  0  0  0  0
  -28.2570  -28.0310   55.1750 N   0  0  0  0  0  0  0  0  0  0  0  0
  -27.2320  -26.9720   55.4580 C   0  0  0  0  0  0  0  0  0  0  0  0
  -27.5140  -25.5340   55.7740 N   0  0  0  0  0  0  0  0  0  0  0  0
  -26.7710  -24.9120   55.9450 H   0  0  0  0  0  0  0  0  0  0  0  0
  -28.4430  -25.2100   55.8100 H   0  0  0  0  0  0  0  0  0  0  0  0
  -19.9560  -27.6880   55.1330 C   0  0  0  0  0  0  0  0  0  0  0  0
  -19.6140  -27.8370   53.6810 O   0  0  0  0  0  0  0  0  0  0  0  0
  -19.5750  -28.7620   56.1080 N   0  0  0  0  0  0  0  0  0  0  0  0
  -19.7990  -28.6640   57.0620 H   0  0  0  0  0  0  0  0  0  0  0  0
  -18.8500  -29.9850   55.6310 C   0  0  0  0  0  0  0  0  0  0  0  0
  -19.4010  -30.8630   55.3640 H   0  0  0  0  0  0  0  0  0  0  0  0
  -18.3330  -30.8580   55.2900 H   0  0  0  0  0  0  0  0  0  0  0  0
  -17.3540  -29.9780   55.5280 C   0  0  0  0  0  0  0  0  0  0  0  0
  -16.7760  -30.6910   56.0790 H   0  0  0  0  0  0  0  0  0  0  0  0
  -16.2860  -29.9740   55.4540 H   0  0  0  0  0  0  0  0  0  0  0  0
  -16.6670  -28.9730   54.6510 N   0  0  0  0  0  0  0  0  0  0  0  0
  -16.6880  -29.0820   53.6380 H   0  0  0  0  0  0  0  0  0  0  0  0
  -15.9500  -27.8080   55.2660 C   0  0  0  0  0  0  0  0  0  0  0  0
  -15.9280  -27.6940   56.3300 H   0  0  0  0  0  0  0  0  0  0  0  0
  -15.4600  -27.0910   54.6410 H   0  0  0  0  0  0  0  0  0  0  0  0
  -15.4380  -26.9770   55.7050 H   0  0  0  0  0  0  0  0  0  0  0  0
  -22.9210  -28.8700   54.7980 C   0  0  0  0  0  3  0  0  0  0  0  0
  -22.7330  -29.6720   55.4820 H   0  0  0  0  0  0  0  0  0  0  0  0
  -22.9350  -28.6890   55.8530 H   0  0  0  0  0  0  0  0  0  0  0  0
  -22.9000  -29.1260   53.3210 C   0  0  0  0  0  0  0  0  0  0  0  0
  -23.0880  -28.3240   52.6370 H   0  0  0  0  0  0  0  0  0  0  0  0
  -22.6980  -30.1090   52.9500 H   0  0  0  0  0  0  0  0  0  0  0  0
  -22.8860  -29.3080   52.2670 H   0  0  0  0  0  0  0  0  0  0  0  0
  2  3  1  0
  3  4  1  0
  4  5  1  0
  5 10  1  0
  6  5  2  0
  7  6  1  0
  8  9  1  0
  8  7  2  0
  9  4  2  0
 11  7  1  0
 12 16  1  0
 12  2  1  0
 13 12  2  0
 14 13  1  0
 14 15  1  0
 15 16  2  0
 16 17  1  0
 17 19  1  0
 17 18  1  0
 20  8  1  0
 20 22  1  0
 21 20  2  0
 22 23  1  0
 24 22  1  0
 25 24  1  0
 26 24  1  0
 27 24  1  0
 27 28  1  0
 29 27  1  0
 30 32  1  0
 30 27  1  0
 31 30  1  0
 32 35  1  0
 32 33  1  0
 34 32  1  0
 36 37  1  0
 36 38  1  0
 39 36  1  0
 40 39  1  0
 41 39  1  0
 42 39  1  0
M  END
>  <minimizedAffinity>  (164) 
-8.57717896

$$$$

     RDKit          3D

 51 52  0  0  0  0  0  0  0  0999 V2000
  -19.3730  -26.7840   55.2980 C   0  0  0  0  0  0  0  0  0  0  0  0
  -19.2360  -27.7710   54.1770 C   0  0  0  0  0  0  0  0  0  0  0  0
  -17.8090  -28.2280   54.1340 C   0  0  0  0  0  3  0  0  0  0  0  0
  -17.0630  -27.5260   55.2290 C   0  0  0  0  0  0  0  0  0  0  0  0
  -18.0300  -26.6320   55.9490 S   0  0  0  0  0  0  0  0  0  0  0  0
  -19.9920  -28.0790   53.5460 H   0  0  0  0  0  0  0  0  0  0  0  0
  -24.9890  -27.0680   55.4170 C   0  0  0  0  0  0  0  0  0  0  0  0
  -24.4560  -25.7960   56.0070 C   0  0  0  0  0  0  0  0  0  0  0  0
  -22.9760  -25.5550   56.0560 C   0  0  0  0  0  0  0  0  0  0  0  0
  -22.1630  -24.4060   56.5750 N   0  0  0  0  0  0  0  0  0  0  0  0
  -20.7140  -24.7270   56.3540 C   0  0  0  0  0  0  0  0  0  0  0  0
  -20.6320  -26.0730   55.6990 N   0  0  0  0  0  0  0  0  0  0  0  0
  -22.0300  -26.5850   55.5150 C   0  0  0  0  0  0  0  0  0  0  0  0
  -22.5640  -27.8570   54.9250 C   0  0  0  0  0  0  0  0  0  0  0  0
  -24.0440  -28.0980   54.8760 C   0  0  0  0  0  0  0  0  0  0  0  0
  -25.1070  -25.0870   56.3800 H   0  0  0  0  0  0  0  0  0  0  0  0
  -19.9140  -24.1260   56.6080 H   0  0  0  0  0  0  0  0  0  0  0  0
  -21.9130  -28.5660   54.5530 H   0  0  0  0  0  0  0  0  0  0  0  0
  -26.4690  -27.3090   55.3680 O   0  0  0  0  0  0  0  0  0  0  0  0
  -27.4200  -26.2180   55.7660 C   0  0  0  0  0  0  0  0  0  0  0  0
  -27.0430  -25.2690   56.0850 H   0  0  0  0  0  0  0  0  0  0  0  0
  -28.4760  -26.3910   55.7310 H   0  0  0  0  0  0  0  0  0  0  0  0
  -28.0990  -25.4410   56.0500 H   0  0  0  0  0  0  0  0  0  0  0  0
  -24.5780  -29.3700   54.2860 O   0  0  0  0  0  0  0  0  0  0  0  0
  -23.7060  -30.2070   53.3980 C   0  0  0  0  0  0  0  0  0  0  0  0
  -24.0870  -31.1150   52.9770 H   0  0  0  0  0  0  0  0  0  0  0  0
  -22.7030  -29.8990   53.1860 H   0  0  0  0  0  0  0  0  0  0  0  0
  -23.0840  -30.8060   52.7650 H   0  0  0  0  0  0  0  0  0  0  0  0
  -15.6070  -27.6870   55.5490 C   0  0  0  0  0  0  0  0  0  0  0  0
  -15.0160  -29.0590   55.6820 N   0  0  0  0  0  0  0  0  0  0  0  0
  -14.7410  -26.4760   55.7340 O   0  0  0  0  0  0  0  0  0  0  0  0
  -15.5840  -29.8540   55.5610 H   0  0  0  0  0  0  0  0  0  0  0  0
  -14.0590  -29.1650   55.8920 H   0  0  0  0  0  0  0  0  0  0  0  0
  -17.2280  -29.2170   53.1660 O   0  0  0  0  0 15  0  0  0  0  0  0
  -17.7100  -30.6370   53.1660 C   0  0  0  0  0  3  0  0  0  0  0  0
  -18.1730  -29.9150   52.5250 H   0  0  0  0  0  0  0  0  0  0  0  0
  -17.0630  -31.6500   54.0630 C   0  0  0  0  0  0  0  0  0  0  0  0
  -16.0340  -32.5910   53.5090 C   0  0  0  0  0  0  0  0  0  0  0  0
  -15.3860  -33.6050   54.4060 C   0  0  0  0  0  0  0  0  0  0  0  0
  -15.7680  -33.6760   55.8550 C   0  0  0  0  0  0  0  0  0  0  0  0
  -16.7970  -32.7350   56.4080 C   0  0  0  0  0  0  0  0  0  0  0  0
  -17.4440  -31.7220   55.5110 C   0  0  0  0  0  0  0  0  0  0  0  0
  -18.4730  -30.7800   56.0640 Cl  0  0  0  0  0  0  0  0  0  0  0  0
  -15.7720  -32.5420   52.5130 H   0  0  0  0  0  0  0  0  0  0  0  0
  -14.6790  -34.2520   54.0260 H   0  0  0  0  0  0  0  0  0  0  0  0
  -15.3220  -34.3740   56.4720 H   0  0  0  0  0  0  0  0  0  0  0  0
  -17.0580  -32.7850   57.4040 H   0  0  0  0  0  0  0  0  0  0  0  0
  -18.8410  -31.0450   52.2680 C   0  0  0  0  0  0  0  0  0  0  0  0
  -19.3030  -30.3230   51.6280 H   0  0  0  0  0  0  0  0  0  0  0  0
  -19.1850  -32.0580   52.2670 H   0  0  0  0  0  0  0  0  0  0  0  0
  -19.6470  -31.3360   51.6270 H   0  0  0  0  0  0  0  0  0  0  0  0
  1 12  1  0
  1  5  1  0
  2  1  2  0
  3  2  1  0
  3  4  2  0
  4 29  1  0
  4  5  1  0
  6  2  1  0
  7  8  1  0
  8  9  2  0
  8 16  1  0
  9 10  1  0
 11 10  2  0
 11 17  1  0
 12 11  1  0
 13 12  1  0
 13  9  1  0
 14 13  2  0
 15 14  1  0
 15  7  2  0
 18 14  1  0
 19  7  1  0
 19 20  1  0
 20 23  1  0
 20 21  1  0
 22 20  1  0
 24 15  1  0
 25 24  1  0
 26 25  1  0
 27 25  1  0
 28 25  1  0
 29 30  1  0
 29 31  2  0
 30 33  1  0
 32 30  1  0
 35 37  1  0
 36 35  1  0
 37 42  1  0
 38 37  2  0
 38 39  1  0
 39 40  2  0
 40 41  1  0
 40 46  1  0
 41 47  1  0
 42 43  1  0
 42 41  2  0
 44 38  1  0
 45 39  1  0
 48 35  1  0
 49 48  1  0
 50 48  1  0
 51 48  1  0
M  END
>  <minimizedAffinity>  (165) 
-8.8065033

$$$$

     RDKit          3D

 56 55  0  0  0  0  0  0  0  0999 V2000
  -20.8670  -30.9590   54.2120 C   0  0  0  0  0  0  0  0  0  0  0  0
  -21.4670  -29.6350   54.5830 C   0  0  0  0  0  0  0  0  0  0  0  0
  -20.6690  -28.6480   55.3830 C   0  0  0  0  0  0  0  0  0  0  0  0
  -19.2720  -28.9850   55.8120 C   0  0  0  0  0  0  0  0  0  0  0  0
  -18.6720  -30.3090   55.4410 C   0  0  0  0  0  0  0  0  0  0  0  0
  -19.4700  -31.2960   54.6410 C   0  0  0  0  0  0  0  0  0  0  0  0
  -22.4280  -29.4030   54.2880 H   0  0  0  0  0  0  0  0  0  0  0  0
  -18.7230  -28.3060   56.3620 H   0  0  0  0  0  0  0  0  0  0  0  0
  -21.2680  -27.3240   55.7540 C   0  0  0  0  0  0  0  0  0  0  0  0
  -22.7280  -27.0690   55.5190 C   0  0  0  0  0  0  0  0  0  0  0  0
  -23.3280  -25.7450   55.8900 C   0  0  0  0  0  0  0  0  0  0  0  0
  -22.4680  -24.6760   56.4960 C   0  0  0  0  0  0  0  0  0  0  0  0
  -23.0670  -23.3520   56.8670 F   0  0  0  0  0  0  0  0  0  0  0  0
  -21.0080  -24.9300   56.7300 C   0  0  0  0  0  0  0  0  0  0  0  0
  -20.4080  -26.2540   56.3590 C   0  0  0  0  0  0  0  0  0  0  0  0
  -23.3200  -27.8050   55.1030 H   0  0  0  0  0  0  0  0  0  0  0  0
  -24.3320  -25.5700   55.7290 H   0  0  0  0  0  0  0  0  0  0  0  0
  -20.4160  -24.1940   57.1470 H   0  0  0  0  0  0  0  0  0  0  0  0
  -19.4040  -26.4290   56.5200 H   0  0  0  0  0  0  0  0  0  0  0  0
  -17.2750  -30.6460   55.8690 C   0  0  0  0  0  0  0  0  0  0  0  0
  -17.0280  -31.8260   56.7620 C   0  0  0  0  0  0  0  0  0  0  0  0
  -15.6310  -32.1630   57.1900 C   0  0  0  0  0  0  0  0  0  0  0  0
  -14.4800  -31.3200   56.7270 C   0  0  0  0  0  0  0  0  0  0  0  0
  -14.7270  -30.1390   55.8350 C   0  0  0  0  0  0  0  0  0  0  0  0
  -16.1240  -29.8020   55.4060 C   0  0  0  0  0  0  0  0  0  0  0  0
  -17.8200  -32.4060   57.0810 H   0  0  0  0  0  0  0  0  0  0  0  0
  -15.4610  -32.9750   57.8040 H   0  0  0  0  0  0  0  0  0  0  0  0
  -13.9350  -29.5590   55.5160 H   0  0  0  0  0  0  0  0  0  0  0  0
  -16.2940  -28.9900   54.7920 H   0  0  0  0  0  0  0  0  0  0  0  0
  -13.0830  -31.6570   57.1560 S   0  0  1  0  0  0  0  0  0  0  0  0
  -12.5370  -30.7920   56.0580 O   0  0  0  0  0  0  0  0  0  0  0  0
  -13.6280  -32.5220   58.2530 O   0  0  0  0  0  0  0  0  0  0  0  0
  -11.6850  -31.9940   57.5840 N   0  0  0  0  0  0  0  0  0  0  0  0
  -10.8000  -33.0360   56.9670 C   0  0  0  0  0  0  0  0  0  0  0  0
   -9.4960  -33.0340   57.7060 C   0  0  0  0  0  2  0  0  0  0  0  0
   -9.5740  -31.9910   58.7820 C   0  0  0  0  0  2  0  0  0  0  0  0
  -10.9270  -31.3480   58.7070 C   0  0  0  0  0  2  0  0  0  0  0  0
  -11.0550  -33.6690   56.1430 H   0  0  0  0  0  0  0  0  0  0  0  0
  -10.0560  -33.7310   56.6410 H   0  0  0  0  0  0  0  0  0  0  0  0
   -8.6570  -33.6650   57.5030 H   0  0  0  0  0  0  0  0  0  0  0  0
   -8.6330  -32.9100   58.3280 H   0  0  0  0  0  0  0  0  0  0  0  0
   -8.8010  -31.7480   59.4800 H   0  0  0  0  0  0  0  0  0  0  0  0
   -9.7850  -31.2190   59.4920 H   0  0  0  0  0  0  0  0  0  0  0  0
  -11.2890  -30.5660   59.3420 H   0  0  0  0  0  0  0  0  0  0  0  0
  -11.9200  -30.9950   58.5240 H   0  0  0  0  0  0  0  0  0  0  0  0
  -23.0210  -32.3750   53.8890 N   0  0  0  0  0  0  0  0  0  0  0  0
  -21.6650  -31.9460   53.4130 C   0  0  0  0  0  0  0  0  0  0  0  0
  -21.1070  -32.5030   52.1370 O   0  0  0  0  0  0  0  0  0  0  0  0
  -23.3880  -32.0100   54.7260 H   0  0  0  0  0  0  0  0  0  0  0  0
  -23.8190  -33.3620   53.0890 C   0  0  0  0  0  0  0  0  0  0  0  0
  -24.7860  -33.6690   53.4290 H   0  0  0  0  0  0  0  0  0  0  0  0
  -23.4200  -33.7600   52.1790 H   0  0  0  0  0  0  0  0  0  0  0  0
  -24.3880  -34.0660   52.5190 H   0  0  0  0  0  0  0  0  0  0  0  0
  -18.8700  -32.6200   54.2700 N   0  0  0  0  0  0  0  0  0  0  0  0
  -19.3940  -33.2670   53.7450 H   0  0  0  0  0  0  0  0  0  0  0  0
  -17.9530  -32.8410   54.5510 H   0  0  0  0  0  0  0  0  0  0  0  0
  1  2  2  0
  1  6  1  0
  2  3  1  0
  3  9  1  0
  3  4  2  0
  4  8  1  0
  5  4  1  0
  5 20  1  0
  6  5  2  0
  7  2  1  0
  9 15  1  0
 10  9  2  0
 10 11  1  0
 11 12  2  0
 12 14  1  0
 12 13  1  0
 14 18  1  0
 15 19  1  0
 15 14  2  0
 16 10  1  0
 17 11  1  0
 20 21  1  0
 21 26  1  0
 21 22  2  0
 22 27  1  0
 23 30  1  0
 23 22  1  0
 24 23  2  0
 25 24  1  0
 25 20  2  0
 28 24  1  0
 29 25  1  0
 30 33  1  0
 30 32  2  0
 31 30  2  0
 34 33  2  0
 35 41  1  0
 36 42  1  0
 36 43  1  0
 37 44  1  0
 38 34  1  0
 39 34  1  0
 40 35  1  0
 45 37  1  0
 46 49  1  0
 47 46  1  0
 47  1  1  0
 48 47  2  0
 50 51  1  0
 50 46  1  0
 52 50  1  0
 53 50  1  0
 54 56  1  0
 54  6  1  0
 55 54  1  0
M  END
>  <minimizedAffinity>  (166) 
-9.18712139

$$$$

     RDKit          3D

 46 48  0  0  1  0  0  0  0  0999 V2000
  -17.9560  -27.1530   55.3700 C   0  0  0  0  0  3  0  0  0  0  0  0
  -18.4170  -28.5740   55.2340 C   0  0  0  0  0  0  0  0  0  0  0  0
  -17.4150  -29.6910   55.2300 C   0  0  0  0  0  0  0  0  0  0  0  0
  -15.9520  -29.3860   55.3620 C   0  0  0  0  0  0  0  0  0  0  0  0
  -15.4910  -27.9650   55.4980 C   0  0  0  0  0  0  0  0  0  0  0  0
  -16.4930  -26.8490   55.5020 C   0  0  0  0  0  0  0  0  0  0  0  0
  -16.0320  -25.4280   55.6380 Cl  0  0  0  0  0  0  0  0  0  0  0  0
  -19.4240  -28.7840   55.1430 H   0  0  0  0  0  0  0  0  0  0  0  0
  -17.7330  -30.6680   55.1360 H   0  0  0  0  0  0  0  0  0  0  0  0
  -14.4850  -27.7560   55.5890 H   0  0  0  0  0  0  0  0  0  0  0  0
  -14.9510  -30.5030   55.3580 N   0  0  0  0  0  0  0  0  0  0  0  0
  -14.4390  -31.0560   56.6550 C   0  0  0  0  0  3  0  0  0  0  0  0
  -14.9290  -30.4920   57.9560 N   0  0  0  0  0  0  0  0  0  0  0  0
  -14.4170  -31.0450   59.2530 C   0  0  0  0  0  0  0  0  0  0  0  0
  -13.4150  -32.1610   59.2490 N   0  0  0  0  0  2  0  0  0  0  0  0
  -12.9250  -32.7250   57.9490 C   0  0  0  0  0  0  0  0  0  0  0  0
  -11.9480  -33.8180   57.6330 S   0  0  0  0  0  0  0  0  0  0  0  0
  -11.8560  -33.9410   56.1410 C   0  0  0  0  0  0  0  0  0  0  0  0
  -12.7760  -32.9240   55.5340 C   0  0  0  0  0  0  0  0  0  0  0  0
  -13.4370  -32.1720   56.6520 C   0  0  0  0  0  0  0  0  0  0  0  0
  -14.6290  -30.8720   54.5040 H   0  0  0  0  0  0  0  0  0  0  0  0
  -14.7540  -30.6570   60.1490 H   0  0  0  0  0  0  0  0  0  0  0  0
  -12.9280  -32.7680   54.5260 H   0  0  0  0  0  0  0  0  0  0  0  0
  -10.9940  -34.9110   55.3870 C   0  0  0  0  0  0  0  0  0  0  0  0
  -11.3080  -35.5140   54.0510 C   0  0  0  0  0  0  0  0  0  0  0  0
  -10.1760  -36.4240   53.6760 C   0  0  0  0  0  0  0  0  0  0  0  0
   -9.1620  -36.3820   54.7810 C   0  0  0  0  0  0  0  0  0  0  0  0
   -9.6690  -35.4470   55.8380 S   0  0  0  0  0  0  0  0  0  0  0  0
  -12.1540  -35.3360   53.4880 H   0  0  0  0  0  0  0  0  0  0  0  0
  -10.1060  -36.9810   52.8100 H   0  0  0  0  0  0  0  0  0  0  0  0
   -8.2730  -36.9050   54.8090 H   0  0  0  0  0  0  0  0  0  0  0  0
  -18.9580  -26.0370   55.3740 O   0  0  0  0  0 15  0  0  0  0  0  0
  -19.8730  -25.8550   56.5480 C   0  0  0  0  0  3  0  0  0  0  0  0
  -19.4690  -25.7810   57.5360 H   0  0  0  0  0  0  0  0  0  0  0  0
  -18.8150  -25.9100   56.6980 H   0  0  0  0  0  0  0  0  0  0  0  0
  -24.3470  -28.1090   55.1690 F   0  0  0  0  0  0  0  0  0  0  0  0
  -23.5930  -26.9040   55.6480 C   0  0  0  0  0  0  0  0  0  0  0  0
  -24.3230  -25.6210   55.9160 C   0  0  0  0  0  0  0  0  0  0  0  0
  -23.5690  -24.4160   56.3950 C   0  0  0  0  0  0  0  0  0  0  0  0
  -22.0860  -24.4940   56.6060 C   0  0  0  0  0  0  0  0  0  0  0  0
  -21.3560  -25.7770   56.3370 C   0  0  0  0  0  0  0  0  0  0  0  0
  -22.1100  -26.9820   55.8580 C   0  0  0  0  0  0  0  0  0  0  0  0
  -25.3430  -25.5670   55.7720 H   0  0  0  0  0  0  0  0  0  0  0  0
  -24.0710  -23.5330   56.5800 H   0  0  0  0  0  0  0  0  0  0  0  0
  -21.5670  -23.6650   56.9360 H   0  0  0  0  0  0  0  0  0  0  0  0
  -21.6090  -27.8650   55.6730 H   0  0  0  0  0  0  0  0  0  0  0  0
  1  6  1  0
  2  1  2  0
  3  2  1  0
  3  4  2  0
  4  5  1  0
  5  6  2  0
  5 10  1  0
  6  7  1  0
  8  2  1  0
  9  3  1  0
 11  4  1  0
 12 11  1  0
 12 13  1  0
 13 14  2  0
 14 22  1  0
 15 14  1  0
 16 15  1  0
 17 16  1  0
 18 17  1  0
 19 18  2  0
 19 20  1  0
 20 12  1  0
 20 16  2  0
 21 11  1  0
 23 19  1  0
 24 28  1  0
 24 18  1  0
 25 24  2  0
 26 25  1  0
 26 27  2  0
 27 31  1  0
 27 28  1  0
 29 25  1  0
 30 26  1  0
 33 35  1  0
 33 34  1  0
 36 37  1  0
 37 42  2  0
 37 38  1  0
 38 39  2  0
 39 44  1  0
 39 40  1  0
 40 45  1  0
 41 33  1  0
 41 40  2  0
 42 41  1  0
 43 38  1  0
 46 42  1  0
M  END
>  <minimizedAffinity>  (167) 
-10.2643433

$$$$

     RDKit          3D

 53 51  0  0  0  0  0  0  0  0999 V2000
  -18.2890  -31.0400   55.1150 C   0  0  0  0  0  0  0  0  0  0  0  0
  -17.4140  -32.1140   55.6900 C   0  0  0  0  0  0  0  0  0  0  0  0
  -18.0410  -33.4400   55.3790 N   0  0  0  0  0  0  0  0  0  0  0  0
  -19.3050  -33.1850   54.6110 C   0  0  0  0  0  0  0  0  0  0  0  0
  -19.4580  -31.7030   54.4480 N   0  0  0  0  0  0  0  0  0  0  0  0
  -19.9550  -33.9050   54.2580 H   0  0  0  0  0  0  0  0  0  0  0  0
  -20.5820  -31.0040   53.7430 C   0  0  0  0  0  2  0  0  0  0  0  0
  -20.2860  -30.0010   52.6690 C   0  0  0  0  0  2  0  0  0  0  0  0
  -21.4110  -29.3020   51.9630 C   0  0  0  0  0  2  0  0  0  0  0  0
  -22.8320  -29.6070   52.3330 N   0  0  0  0  0  1  0  0  0  0  0  0
  -23.1280  -30.6100   53.4080 C   0  0  0  0  0  2  0  0  0  0  0  0
  -22.0040  -31.3090   54.1130 C   0  0  0  0  0  2  0  0  0  0  0  0
  -21.3850  -30.5060   53.2410 H   0  0  0  0  0  0  0  0  0  0  0  0
  -19.2720  -29.7830   52.4050 H   0  0  0  0  0  0  0  0  0  0  0  0
  -20.0750  -29.2840   51.9020 H   0  0  0  0  0  0  0  0  0  0  0  0
  -21.1990  -28.5860   51.1970 H   0  0  0  0  0  0  0  0  0  0  0  0
  -22.2130  -28.8040   51.4610 H   0  0  0  0  0  0  0  0  0  0  0  0
  -23.5960  -29.1320   51.8540 H   0  0  0  0  0  0  0  0  0  0  0  0
  -24.1430  -30.8280   53.6710 H   0  0  0  0  0  0  0  0  0  0  0  0
  -23.3400  -31.3260   54.1740 H   0  0  0  0  0  0  0  0  0  0  0  0
  -22.2150  -32.0250   54.8790 H   0  0  0  0  0  0  0  0  0  0  0  0
  -21.2010  -31.8070   54.6150 H   0  0  0  0  0  0  0  0  0  0  0  0
  -16.1340  -31.8990   56.4430 C   0  0  0  0  0  0  0  0  0  0  0  0
  -16.1260  -31.9680   57.9420 C   0  0  0  0  0  0  0  0  0  0  0  0
  -14.8480  -31.7540   58.6950 C   0  0  0  0  0  0  0  0  0  0  0  0
  -13.5770  -31.4700   57.9510 C   0  0  0  0  0  0  0  0  0  0  0  0
  -12.2980  -31.2550   58.7060 F   0  0  0  0  0  0  0  0  0  0  0  0
  -13.5850  -31.4010   56.4520 C   0  0  0  0  0  0  0  0  0  0  0  0
  -14.8630  -31.6150   55.6990 C   0  0  0  0  0  0  0  0  0  0  0  0
  -17.0010  -32.1640   58.4540 H   0  0  0  0  0  0  0  0  0  0  0  0
  -14.8420  -31.8010   59.7270 H   0  0  0  0  0  0  0  0  0  0  0  0
  -12.7100  -31.2050   55.9410 H   0  0  0  0  0  0  0  0  0  0  0  0
  -14.8690  -31.5680   54.6680 H   0  0  0  0  0  0  0  0  0  0  0  0
  -18.7490  -27.2010   56.0080 C   0  0  0  0  0  0  0  0  0  0  0  0
  -17.5390  -26.6090   55.3490 N   0  0  0  0  0  0  0  0  0  0  0  0
  -16.5780  -27.4940   54.6120 C   0  0  0  0  0  3  0  0  0  0  0  0
  -16.8280  -28.9710   54.5340 C   0  0  0  0  0  0  0  0  0  0  0  0
  -18.0390  -29.5630   55.1930 C   0  0  0  0  0  0  0  0  0  0  0  0
  -18.9990  -28.6780   55.9300 N   0  0  0  0  0  0  0  0  0  0  0  0
  -15.7450  -27.0870   54.1580 H   0  0  0  0  0  0  0  0  0  0  0  0
  -16.1670  -29.5810   54.0260 H   0  0  0  0  0  0  0  0  0  0  0  0
  -19.7100  -26.3150   56.7450 O   0  0  0  0  0  0  0  0  0  0  0  0
  -25.4530  -26.0380   55.0320 F   0  0  0  0  0  0  0  0  0  0  0  0
  -24.0170  -26.1070   55.4610 C   0  0  0  0  0  0  0  0  0  0  0  0
  -23.3500  -24.8980   56.0450 C   0  0  0  0  0  0  0  0  0  0  0  0
  -21.9140  -24.9670   56.4730 C   0  0  0  0  0  0  0  0  0  0  0  0
  -21.1460  -26.2460   56.3170 C   0  0  0  0  0  0  0  0  0  0  0  0
  -21.8130  -27.4550   55.7330 C   0  0  0  0  0  0  0  0  0  0  0  0
  -23.2490  -27.3860   55.3050 C   0  0  0  0  0  0  0  0  0  0  0  0
  -23.8780  -24.0180   56.1520 H   0  0  0  0  0  0  0  0  0  0  0  0
  -21.4540  -24.1350   56.8750 H   0  0  0  0  0  0  0  0  0  0  0  0
  -21.2850  -28.3360   55.6250 H   0  0  0  0  0  0  0  0  0  0  0  0
  -23.7090  -28.2180   54.9030 H   0  0  0  0  0  0  0  0  0  0  0  0
  1 38  1  0
  1  2  2  0
  2 23  1  0
  3  2  1  0
  4  3  2  0
  5  4  1  0
  5  1  1  0
  6  4  1  0
  7  5  1  0
 11 19  1  0
 11 20  1  0
 12 22  1  0
 12 21  1  0
 13  7  1  0
 14  8  1  0
 15  8  1  0
 16  9  1  0
 17  9  1  0
 18 10  1  0
 23 24  1  0
 24 30  1  0
 24 25  2  0
 25 31  1  0
 26 25  1  0
 26 27  1  0
 28 26  2  0
 29 23  2  0
 29 28  1  0
 32 28  1  0
 33 29  1  0
 34 42  1  0
 35 34  2  0
 36 35  1  0
 37 36  1  0
 37 38  2  0
 38 39  1  0
 39 34  2  0
 40 36  1  0
 41 37  1  0
 43 44  1  0
 44 45  1  0
 45 50  1  0
 45 46  2  0
 46 51  1  0
 47 46  1  0
 47 42  1  0
 48 47  2  0
 49 44  2  0
 49 48  1  0
 52 48  1  0
 53 49  1  0
M  END
>  <minimizedAffinity>  (168) 
-8.99862862

$$$$

     RDKit          3D

 43 41  0  0  0  0  0  0  0  0999 V2000
  -17.2260  -32.6110   55.0770 C   0  0  0  0  0  3  0  0  0  0  0  0
  -16.7270  -33.3850   56.2610 C   0  0  0  0  0  0  0  0  0  0  0  0
  -15.7420  -32.7610   57.2040 C   0  0  0  0  0  0  0  0  0  0  0  0
  -15.2560  -31.3630   56.9630 C   0  0  0  0  0  0  0  0  0  0  0  0
  -15.7550  -30.5890   55.7790 C   0  0  0  0  0  0  0  0  0  0  0  0
  -16.7400  -31.2130   54.8360 C   0  0  0  0  0  0  0  0  0  0  0  0
  -17.0620  -34.3480   56.4260 H   0  0  0  0  0  0  0  0  0  0  0  0
  -15.3990  -33.2940   58.0180 H   0  0  0  0  0  0  0  0  0  0  0  0
  -17.0830  -30.6800   54.0220 H   0  0  0  0  0  0  0  0  0  0  0  0
  -15.2680  -29.1900   55.5390 N   0  0  0  0  0  0  0  0  0  0  0  0
  -16.2480  -28.0560   55.4780 C   0  0  0  0  0  0  0  0  0  0  0  0
  -15.9110  -26.6130   55.2470 N   0  0  0  0  0  0  0  0  0  0  0  0
  -17.1910  -25.8300   55.2640 C   0  0  0  0  0  0  0  0  0  0  0  0
  -18.3180  -26.7900   55.5070 C   0  0  0  0  0  0  0  0  0  0  0  0
  -17.7350  -28.1650   55.6390 O   0  0  0  0  0  0  0  0  0  0  0  0
  -14.3070  -29.0170   55.4210 H   0  0  0  0  0  0  0  0  0  0  0  0
  -17.2800  -24.8110   55.1320 H   0  0  0  0  0  0  0  0  0  0  0  0
  -19.7730  -26.4360   55.6000 C   0  0  0  0  0  0  0  0  0  0  0  0
  -20.2260  -25.3680   56.5520 C   0  0  0  0  0  0  0  0  0  0  0  0
  -21.6800  -25.0150   56.6460 C   0  0  0  0  0  0  0  0  0  0  0  0
  -22.6820  -25.7280   55.7880 C   0  0  0  0  0  0  0  0  0  0  0  0
  -22.2290  -26.7950   54.8360 C   0  0  0  0  0  0  0  0  0  0  0  0
  -20.7750  -27.1490   54.7420 C   0  0  0  0  0  0  0  0  0  0  0  0
  -20.3230  -28.2170   53.7900 Cl  0  0  0  0  0  0  0  0  0  0  0  0
  -19.5360  -24.8770   57.1430 H   0  0  0  0  0  0  0  0  0  0  0  0
  -21.9910  -24.2800   57.3010 H   0  0  0  0  0  0  0  0  0  0  0  0
  -23.6820  -25.4850   55.8520 H   0  0  0  0  0  0  0  0  0  0  0  0
  -22.9190  -27.2860   54.2460 H   0  0  0  0  0  0  0  0  0  0  0  0
  -18.2120  -33.2350   54.1330 S   0  0  0  0  0 15  0  0  0  0  0  0
  -17.7650  -32.3010   53.0480 O   0  0  0  0  0 15  0  0  0  0  0  0
  -18.6590  -34.1690   55.2180 O   0  0  0  0  0 15  0  0  0  0  0  0
  -19.1970  -33.8590   53.1900 C   0  0  0  0  0  3  0  0  0  0  0  0
  -18.9160  -34.7160   52.6130 H   0  0  0  0  0  0  0  0  0  0  0  0
  -18.2140  -34.2710   53.2860 H   0  0  0  0  0  0  0  0  0  0  0  0
  -20.5750  -33.2830   53.0560 C   0  0  0  0  0  0  0  0  0  0  0  0
  -21.2780  -33.7280   52.3830 H   0  0  0  0  0  0  0  0  0  0  0  0
  -20.8560  -32.4260   53.6330 H   0  0  0  0  0  0  0  0  0  0  0  0
  -21.5590  -32.8710   52.9600 H   0  0  0  0  0  0  0  0  0  0  0  0
  -14.2700  -30.7390   57.9070 O   0  0  0  0  0  0  0  0  0  0  0  0
  -14.2630  -31.1350   59.3530 C   0  0  0  0  0  0  0  0  0  0  0  0
  -13.5600  -30.6900   60.0260 H   0  0  0  0  0  0  0  0  0  0  0  0
  -14.9600  -31.8630   59.7130 H   0  0  0  0  0  0  0  0  0  0  0  0
  -14.2570  -31.4180   60.3850 H   0  0  0  0  0  0  0  0  0  0  0  0
  1  2  1  0
  2  7  1  0
  2  3  2  0
  3  8  1  0
  4  3  1  0
  4 39  1  0
  5  4  2  0
  6  1  2  0
  6  5  1  0
  9  6  1  0
 10  5  1  0
 11 10  1  0
 11 15  1  0
 12 13  1  0
 12 11  2  0
 13 14  2  0
 14 18  1  0
 14 15  1  0
 16 10  1  0
 17 13  1  0
 18 19  1  0
 19 20  2  0
 19 25  1  0
 20 26  1  0
 21 27  1  0
 21 20  1  0
 22 21  2  0
 23 22  1  0
 23 18  2  0
 24 23  1  0
 28 22  1  0
 32 34  1  0
 33 32  1  0
 35 32  1  0
 35 37  1  0
 36 35  1  0
 38 35  1  0
 39 40  1  0
 40 42  1  0
 40 41  1  0
 40 43  1  0
M  END
>  <minimizedAffinity>  (169) 
-8.07985401

$$$$

     RDKit          3D

 51 54  0  0  0  0  0  0  0  0999 V2000
  -17.6940  -28.8490   54.4710 C   0  0  0  0  0  0  0  0  0  0  0  0
  -16.8320  -27.6250   54.5630 C   0  0  0  0  0  0  0  0  0  0  0  0
  -15.5810  -27.6490   55.3910 C   0  0  0  0  0  0  0  0  0  0  0  0
  -15.1920  -28.8980   56.1260 N   0  0  0  0  0  0  0  0  0  0  0  0
  -16.0540  -30.1220   56.0340 C   0  0  0  0  0  0  0  0  0  0  0  0
  -15.6660  -31.3700   56.7690 N   0  0  0  0  0  0  0  0  0  0  0  0
  -17.3050  -30.0970   55.2060 N   0  0  0  0  0  0  0  0  0  0  0  0
  -17.0990  -26.7660   54.0570 H   0  0  0  0  0  0  0  0  0  0  0  0
  -14.9880  -26.8070   55.4540 H   0  0  0  0  0  0  0  0  0  0  0  0
  -16.2320  -32.1740   56.7090 H   0  0  0  0  0  0  0  0  0  0  0  0
  -14.4150  -31.3940   57.5970 C   0  0  0  0  0  0  0  0  0  0  0  0
  -14.4980  -31.2430   59.0870 C   0  0  0  0  0  0  0  0  0  0  0  0
  -13.2480  -31.2670   59.9140 C   0  0  0  0  0  0  0  0  0  0  0  0
  -11.9130  -31.4430   59.2520 C   0  0  0  0  0  0  0  0  0  0  0  0
  -11.8300  -31.5940   57.7620 C   0  0  0  0  0  0  0  0  0  0  0  0
  -13.0810  -31.5700   56.9340 C   0  0  0  0  0  0  0  0  0  0  0  0
  -15.4170  -31.1220   59.5430 H   0  0  0  0  0  0  0  0  0  0  0  0
  -13.3050  -31.1630   60.9400 H   0  0  0  0  0  0  0  0  0  0  0  0
  -11.0530  -31.4590   59.8210 H   0  0  0  0  0  0  0  0  0  0  0  0
  -13.0230  -31.6740   55.9090 H   0  0  0  0  0  0  0  0  0  0  0  0
  -10.4960  -31.7700   57.0990 S   0  0  1  0  0  0  0  0  0  0  0  0
  -10.3230  -33.0870   57.7970 O   0  0  0  0  0  0  0  0  0  0  0  0
  -10.6680  -30.4530   56.4020 O   0  0  0  0  0  0  0  0  0  0  0  0
   -9.1610  -31.9460   56.4370 N   0  0  0  0  0  0  0  0  0  0  0  0
   -8.6060  -32.7810   56.6230 H   0  0  0  0  0  0  0  0  0  0  0  0
   -8.8100  -31.2300   55.8010 H   0  0  0  0  0  0  0  0  0  0  0  0
  -18.9450  -28.8250   53.6430 N   0  0  0  0  0  0  0  0  0  0  0  0
  -24.0730  -26.5280   55.6760 C   0  0  0  0  0  0  0  0  0  0  0  0
  -22.6830  -26.9210   55.2710 C   0  0  0  0  0  0  0  0  0  0  0  0
  -21.3470  -26.2860   55.5220 C   0  0  0  0  0  0  0  0  0  0  0  0
  -20.1010  -26.9210   54.9800 C   0  0  0  0  0  0  0  0  0  0  0  0
  -20.1910  -28.1900   54.1860 C   0  0  0  0  0  0  0  0  0  0  0  0
  -21.5260  -28.8250   53.9340 C   0  0  0  0  0  0  0  0  0  0  0  0
  -22.7720  -28.1900   54.4770 C   0  0  0  0  0  0  0  0  0  0  0  0
  -24.2180  -28.5830   54.3910 N   0  0  0  0  0  0  0  0  0  0  0  0
  -25.0210  -27.5560   55.1320 N   0  0  0  0  0  0  0  0  0  0  0  0
  -21.2860  -25.4130   56.0690 H   0  0  0  0  0  0  0  0  0  0  0  0
  -19.1820  -26.4840   55.1530 H   0  0  0  0  0  0  0  0  0  0  0  0
  -21.5880  -29.6980   53.3880 H   0  0  0  0  0  0  0  0  0  0  0  0
  -24.4480  -25.3210   56.4830 C   0  0  0  0  0  0  0  0  0  0  0  0
  -25.4750  -25.1330   56.7190 H   0  0  0  0  0  0  0  0  0  0  0  0
  -23.6890  -24.6490   56.8240 H   0  0  0  0  0  0  0  0  0  0  0  0
  -24.7170  -24.4600   57.0590 H   0  0  0  0  0  0  0  0  0  0  0  0
  -26.5120  -27.5560   55.3010 C   0  0  0  0  0  0  0  0  0  0  0  0
  -27.0990  -28.3400   54.8700 H   0  0  0  0  0  0  0  0  0  0  0  0
  -26.9880  -26.7710   55.8510 H   0  0  0  0  0  0  0  0  0  0  0  0
  -27.5750  -27.5560   55.4200 H   0  0  0  0  0  0  0  0  0  0  0  0
  -18.9490  -29.4350   52.2730 C   0  0  0  0  0  0  0  0  0  0  0  0
  -19.8420  -29.4180   51.6830 H   0  0  0  0  0  0  0  0  0  0  0  0
  -18.0600  -29.8880   51.8860 H   0  0  0  0  0  0  0  0  0  0  0  0
  -18.9520  -29.8710   51.2950 H   0  0  0  0  0  0  0  0  0  0  0  0
  1  2  1  0
  1  7  2  0
  2  3  2  0
  3  9  1  0
  3  4  1  0
  5  4  2  0
  5  6  1  0
  6 11  1  0
  7  5  1  0
  8  2  1  0
 10  6  1  0
 11 12  1  0
 12 17  1  0
 12 13  2  0
 13 18  1  0
 14 19  1  0
 14 13  1  0
 15 14  2  0
 16 11  2  0
 16 15  1  0
 20 16  1  0
 21 15  1  0
 21 22  2  0
 23 21  2  0
 24 25  1  0
 24 21  1  0
 26 24  1  0
 27 32  1  0
 27  1  1  0
 28 40  1  0
 29 30  1  0
 29 28  2  0
 30 37  1  0
 31 38  1  0
 31 30  2  0
 32 31  1  0
 33 32  2  0
 33 34  1  0
 34 29  1  0
 35 34  2  0
 35 36  1  0
 36 44  1  0
 36 28  1  0
 39 33  1  0
 40 41  1  0
 40 42  1  0
 40 43  1  0
 44 47  1  0
 44 46  1  0
 45 44  1  0
 48 27  1  0
 49 48  1  0
 50 48  1  0
 51 48  1  0
M  END
>  <minimizedAffinity>  (170) 
-9.32714367

$$$$

     RDKit          3D

 60 63  0  0  1  0  0  0  0  0999 V2000
  -19.8600  -28.8310   53.4050 N   0  0  0  0  0  0  0  0  0  0  0  0
  -20.3650  -27.6470   54.1750 C   0  0  0  0  0  0  0  0  0  0  0  0
  -19.7160  -26.8920   54.4460 H   0  0  0  0  0  0  0  0  0  0  0  0
  -21.8150  -27.5600   54.5520 C   0  0  0  0  0  0  0  0  0  0  0  0
  -22.7720  -28.6240   54.1030 C   0  0  0  0  0  0  0  0  0  0  0  0
  -24.2210  -28.5370   54.4790 C   0  0  0  0  0  0  0  0  0  0  0  0
  -24.7130  -27.3860   55.3050 C   0  0  0  0  0  0  0  0  0  0  0  0
  -23.7570  -26.3220   55.7540 C   0  0  0  0  0  0  0  0  0  0  0  0
  -22.3070  -26.4090   55.3770 C   0  0  0  0  0  0  0  0  0  0  0  0
  -22.4330  -29.4170   53.5340 H   0  0  0  0  0  0  0  0  0  0  0  0
  -24.8790  -29.2690   54.1700 H   0  0  0  0  0  0  0  0  0  0  0  0
  -24.0950  -25.5290   56.3220 H   0  0  0  0  0  0  0  0  0  0  0  0
  -21.6490  -25.6760   55.6870 H   0  0  0  0  0  0  0  0  0  0  0  0
  -26.1630  -27.2990   55.6810 C   0  0  0  0  0  0  0  0  0  0  0  0
  -26.7590  -25.9780   56.0700 O   0  0  0  0  0  0  0  0  0  0  0  0
  -27.0160  -28.5320   55.6690 N   0  0  0  0  0  0  0  0  0  0  0  0
  -26.6250  -29.3990   55.4150 H   0  0  0  0  0  0  0  0  0  0  0  0
  -28.4660  -28.4450   56.0460 C   0  0  0  0  0  0  0  0  0  0  0  0
  -28.7530  -27.9800   56.9650 H   0  0  0  0  0  0  0  0  0  0  0  0
  -29.5000  -28.3830   56.3150 H   0  0  0  0  0  0  0  0  0  0  0  0
  -29.5130  -29.0090   55.1330 C   0  0  0  0  0  0  0  0  0  0  0  0
  -30.1190  -29.8310   55.4560 H   0  0  0  0  0  0  0  0  0  0  0  0
  -30.2600  -29.4120   54.4810 H   0  0  0  0  0  0  0  0  0  0  0  0
  -29.7120  -28.4230   53.7660 N   0  0  0  0  0  0  0  0  0  0  0  0
  -28.9000  -28.9250   52.6090 C   0  0  0  0  0  0  0  0  0  0  0  0
  -28.1790  -29.7020   52.7590 H   0  0  0  0  0  0  0  0  0  0  0  0
  -29.0420  -28.5070   51.6350 H   0  0  0  0  0  0  0  0  0  0  0  0
  -28.3210  -29.2840   51.7840 H   0  0  0  0  0  0  0  0  0  0  0  0
  -30.7230  -27.3350   53.5570 C   0  0  0  0  0  0  0  0  0  0  0  0
  -30.8640  -26.9170   52.5820 H   0  0  0  0  0  0  0  0  0  0  0  0
  -31.3010  -26.9770   54.3820 H   0  0  0  0  0  0  0  0  0  0  0  0
  -31.4430  -26.5590   53.4080 H   0  0  0  0  0  0  0  0  0  0  0  0
  -18.4110  -28.9190   53.0290 N   0  0  0  0  0  0  0  0  0  0  0  0
  -18.1550  -29.1310   52.1020 H   0  0  0  0  0  0  0  0  0  0  0  0
  -15.2020  -30.9440   56.3110 N   0  0  0  0  0  0  0  0  0  0  0  0
  -15.9830  -32.0060   55.5950 N   0  0  0  0  0  0  0  0  0  0  0  0
  -16.9160  -31.3270   54.6360 C   0  0  0  0  0  0  0  0  0  0  0  0
  -16.7110  -29.8460   54.7600 C   0  0  0  0  0  0  0  0  0  0  0  0
  -17.3520  -28.6820   54.0640 C   0  0  0  0  0  3  0  0  0  0  0  0
  -16.9330  -27.2820   54.4030 N   0  0  0  0  0  0  0  0  0  0  0  0
  -15.8740  -27.0460   55.4390 C   0  0  0  0  0  0  0  0  0  0  0  0
  -15.2330  -28.2100   56.1350 N   0  0  0  0  0  2  0  0  0  0  0  0
  -15.6510  -29.6100   55.7960 C   0  0  0  0  0  0  0  0  0  0  0  0
  -17.5810  -31.7960   54.0030 H   0  0  0  0  0  0  0  0  0  0  0  0
  -15.5860  -26.0830   55.6720 H   0  0  0  0  0  0  0  0  0  0  0  0
  -11.7180  -31.8090   58.0050 C   0  0  0  0  0  0  0  0  0  0  0  0
  -12.0600  -31.6420   59.4560 C   0  0  0  0  0  0  0  0  0  0  0  0
  -13.4480  -31.2440   59.8590 C   0  0  0  0  0  0  0  0  0  0  0  0
  -14.4960  -31.0110   58.8110 C   0  0  0  0  0  0  0  0  0  0  0  0
  -14.1540  -31.1770   57.3600 C   0  0  0  0  0  0  0  0  0  0  0  0
  -12.7660  -31.5760   56.9570 C   0  0  0  0  0  0  0  0  0  0  0  0
  -11.3390  -31.8020   60.1780 H   0  0  0  0  0  0  0  0  0  0  0  0
  -13.6830  -31.1290   60.8570 H   0  0  0  0  0  0  0  0  0  0  0  0
  -15.4510  -30.7370   59.0880 H   0  0  0  0  0  0  0  0  0  0  0  0
  -12.5300  -31.6900   55.9590 H   0  0  0  0  0  0  0  0  0  0  0  0
  -10.3290  -32.2070   57.6020 O   0  0  0  0  0  0  0  0  0  0  0  0
   -9.6970  -31.5980   56.3850 C   0  0  0  0  0  0  0  0  0  0  0  0
  -10.2380  -30.8780   55.8050 H   0  0  0  0  0  0  0  0  0  0  0  0
   -8.7070  -31.8820   56.0970 H   0  0  0  0  0  0  0  0  0  0  0  0
   -9.2470  -31.1630   55.5180 H   0  0  0  0  0  0  0  0  0  0  0  0
  1  2  2  0
  2  3  1  0
  2  4  1  0
  4  9  1  0
  5  6  1  0
  5  4  2  0
  6  7  2  0
  7 14  1  0
  7  8  1  0
  8 12  1  0
  9 13  1  0
  9  8  2  0
 10  5  1  0
 11  6  1  0
 14 15  2  0
 16 14  1  0
 16 18  1  0
 17 16  1  0
 18 20  1  0
 18 19  1  0
 21 22  1  0
 21 18  1  0
 23 21  1  0
 24 21  1  0
 25 26  1  0
 25 24  1  0
 27 25  1  0
 28 25  1  0
 29 24  1  0
 29 31  1  0
 30 29  1  0
 32 29  1  0
 33  1  1  0
 34 33  1  0
 35 50  1  0
 36 35  1  0
 37 38  1  0
 37 36  2  0
 38 43  2  0
 39 33  1  0
 39 40  1  0
 39 38  1  0
 40 41  2  0
 41 45  1  0
 41 42  1  0
 43 42  1  0
 43 35  1  0
 44 37  1  0
 46 47  1  0
 47 48  2  0
 47 52  1  0
 48 53  1  0
 49 54  1  0
 49 48  1  0
 50 49  2  0
 51 50  1  0
 51 46  2  0
 55 51  1  0
 56 46  1  0
 57 56  1  0
 58 57  1  0
 59 57  1  0
 60 57  1  0
M  END
>  <minimizedAffinity>  (171) 
-9.11453152

$$$$

     RDKit          3D

 24 26  0  0  0  0  0  0  0  0999 V2000
  -20.1280  -27.8140   55.6630 N   0  0  0  0  0  0  0  0  0  0  0  0
  -20.4950  -26.3710   55.8420 C   0  0  0  0  0  0  0  0  0  0  0  0
  -19.2290  -25.5670   55.8570 N   0  0  0  0  0  0  0  0  0  0  0  0
  -18.0780  -26.5140   55.6870 C   0  0  0  0  0  0  0  0  0  0  0  0
  -16.5960  -26.2910   55.6260 C   0  0  0  0  0  0  0  0  0  0  0  0
  -15.6690  -27.4570   55.4450 N   0  0  0  0  0  0  0  0  0  0  0  0
  -16.2240  -28.8450   55.3250 C   0  0  0  0  0  0  0  0  0  0  0  0
  -17.7060  -29.0680   55.3860 C   0  0  0  0  0  0  0  0  0  0  0  0
  -18.6330  -27.9030   55.5670 C   0  0  0  0  0  0  0  0  0  0  0  0
  -16.2140  -25.3360   55.7090 H   0  0  0  0  0  0  0  0  0  0  0  0
  -15.5860  -29.6470   55.2000 H   0  0  0  0  0  0  0  0  0  0  0  0
  -18.0880  -30.0230   55.3030 H   0  0  0  0  0  0  0  0  0  0  0  0
  -21.8860  -25.8270   55.9820 C   0  0  0  0  0  0  0  0  0  0  0  0
  -23.1580  -26.6150   55.8630 N   0  0  0  0  0  0  0  0  0  0  0  0
  -24.3070  -25.6740   56.0730 O   0  0  0  0  0  0  0  0  0  0  0  0
  -23.7470  -24.3050   56.3210 N   0  0  0  0  0  0  0  0  0  0  0  0
  -22.2500  -24.3990   56.2660 C   0  0  0  0  0  0  0  0  0  0  0  0
  -21.2880  -23.2660   56.4590 N   0  0  0  0  0  0  0  0  0  0  0  0
  -20.3190  -23.4280   56.4030 H   0  0  0  0  0  0  0  0  0  0  0  0
  -21.6250  -22.3590   56.6420 H   0  0  0  0  0  0  0  0  0  0  0  0
  -21.0850  -28.9660   55.5910 C   0  0  0  0  0  0  0  0  0  0  0  0
  -20.7150  -29.9620   55.4610 H   0  0  0  0  0  0  0  0  0  0  0  0
  -22.1380  -28.7930   55.6710 H   0  0  0  0  0  0  0  0  0  0  0  0
  -21.7690  -29.7880   55.5410 H   0  0  0  0  0  0  0  0  0  0  0  0
  1  2  1  0
  2  3  2  0
  2 13  1  0
  4  3  1  0
  5  4  1  0
  5 10  1  0
  6  5  2  0
  7  8  2  0
  7  6  1  0
  8  9  1  0
  9  1  1  0
  9  4  2  0
 11  7  1  0
 12  8  1  0
 13 17  1  0
 14 13  2  0
 14 15  1  0
 15 16  1  0
 17 16  2  0
 17 18  1  0
 18 20  1  0
 19 18  1  0
 21  1  1  0
 21 23  1  0
 22 21  1  0
 24 21  1  0
M  END
>  <minimizedAffinity>  (172) 
-6.66069651

$$$$

     RDKit          3D

 56 59  0  0  0  0  0  0  0  0999 V2000
  -21.8740  -31.7480   52.7110 C   0  0  0  0  0  0  0  0  0  0  0  0
  -21.6580  -30.2650   52.7830 C   0  0  0  0  0  0  0  0  0  0  0  0
  -20.4800  -29.7140   53.5310 C   0  0  0  0  0  0  0  0  0  0  0  0
  -19.5190  -30.6460   54.2060 C   0  0  0  0  0  0  0  0  0  0  0  0
  -18.2760  -30.3960   55.0100 C   0  0  0  0  0  0  0  0  0  0  0  0
  -17.7250  -31.7250   55.4350 C   0  0  0  0  0  0  0  0  0  0  0  0
  -18.6250  -32.7950   54.8940 N   0  0  0  0  0  0  0  0  0  0  0  0
  -19.7330  -32.1280   54.1340 N   0  0  0  0  0  0  0  0  0  0  0  0
  -20.9120  -32.6800   53.3860 N   0  0  0  0  0  0  0  0  0  0  0  0
  -22.3200  -29.6250   52.3180 H   0  0  0  0  0  0  0  0  0  0  0  0
  -20.3320  -28.6940   53.5800 H   0  0  0  0  0  0  0  0  0  0  0  0
  -17.6900  -29.0540   55.3330 C   0  0  0  0  0  0  0  0  0  0  0  0
  -16.2010  -28.8830   55.3980 C   0  0  0  0  0  0  0  0  0  0  0  0
  -15.6140  -27.5400   55.7200 C   0  0  0  0  0  0  0  0  0  0  0  0
  -16.5160  -26.3700   55.9780 N   0  0  0  0  0  0  0  0  0  0  0  0
  -18.0050  -26.5410   55.9130 C   0  0  0  0  0  0  0  0  0  0  0  0
  -18.9070  -25.3710   56.1700 N   0  0  0  0  0  0  0  0  0  0  0  0
  -18.5910  -27.8840   55.5900 N   0  0  0  0  0  0  0  0  0  0  0  0
  -15.5800  -29.6880   55.2210 H   0  0  0  0  0  0  0  0  0  0  0  0
  -14.5900  -27.4220   55.7650 H   0  0  0  0  0  0  0  0  0  0  0  0
  -18.5220  -24.4900   56.3820 H   0  0  0  0  0  0  0  0  0  0  0  0
  -20.3950  -25.5430   56.1050 C   0  0  0  0  0  0  0  0  0  0  0  0
  -21.2980  -24.3870   56.4220 C   0  0  0  0  0  0  0  0  0  0  0  0
  -22.7870  -24.5590   56.3570 C   0  0  0  0  0  0  0  0  0  0  0  0
  -23.3730  -25.8860   55.9750 C   0  0  0  0  0  0  0  0  0  0  0  0
  -22.4700  -27.0410   55.6580 C   0  0  0  0  0  0  0  0  0  0  0  0
  -20.9810  -26.8700   55.7230 C   0  0  0  0  0  0  0  0  0  0  0  0
  -23.0560  -28.3680   55.2760 O   0  0  0  0  0  0  0  0  0  0  0  0
  -24.5440  -28.5400   55.2110 C   0  0  0  0  0  3  0  0  0  0  0  0
  -25.4470  -27.3850   55.5280 C   0  0  0  0  0  2  0  0  0  0  0  0
  -24.8610  -26.0580   55.9100 O   0  0  0  0  0  1  0  0  0  0  0  0
  -20.8950  -23.4750   56.6850 H   0  0  0  0  0  0  0  0  0  0  0  0
  -23.4080  -23.7640   56.5750 H   0  0  0  0  0  0  0  0  0  0  0  0
  -20.3600  -27.6640   55.5050 H   0  0  0  0  0  0  0  0  0  0  0  0
  -24.9630  -29.4870   54.9390 H   0  0  0  0  0  0  0  0  0  0  0  0
  -25.6070  -28.6630   55.1650 H   0  0  0  0  0  0  0  0  0  0  0  0
  -26.5090  -27.5070   55.4820 H   0  0  0  0  0  0  0  0  0  0  0  0
  -26.0920  -26.5610   55.7540 H   0  0  0  0  0  0  0  0  0  0  0  0
  -16.4890  -31.9440   56.2570 C   0  0  0  0  0  0  0  0  0  0  0  0
  -15.1900  -32.2780   55.5840 C   0  0  0  0  0  0  0  0  0  0  0  0
  -13.9550  -32.4970   56.4050 C   0  0  0  0  0  0  0  0  0  0  0  0
  -14.0180  -32.3830   57.9000 C   0  0  0  0  0  0  0  0  0  0  0  0
  -15.3170  -32.0500   58.5730 C   0  0  0  0  0  0  0  0  0  0  0  0
  -16.5520  -31.8310   57.7510 C   0  0  0  0  0  0  0  0  0  0  0  0
  -15.1470  -32.3560   54.5560 H   0  0  0  0  0  0  0  0  0  0  0  0
  -13.0610  -32.7260   55.9420 H   0  0  0  0  0  0  0  0  0  0  0  0
  -15.3600  -31.9720   59.6010 H   0  0  0  0  0  0  0  0  0  0  0  0
  -17.4450  -31.6020   58.2140 H   0  0  0  0  0  0  0  0  0  0  0  0
  -12.7820  -32.6030   58.7210 C   0  0  0  0  0  0  0  0  0  0  0  0
  -11.5450  -32.8230   59.5410 F   0  0  0  0  0  0  0  0  0  0  0  0
  -13.3420  -31.7260   59.8000 F   0  0  0  0  0  0  0  0  0  0  0  0
  -12.2210  -33.4800   57.6400 F   0  0  0  0  0  0  0  0  0  0  0  0
  -23.0520  -32.2990   51.9630 C   0  0  0  0  0  0  0  0  0  0  0  0
  -23.2050  -33.3570   51.9120 H   0  0  0  0  0  0  0  0  0  0  0  0
  -23.7370  -31.6350   51.4820 H   0  0  0  0  0  0  0  0  0  0  0  0
  -23.8920  -32.6920   51.4300 H   0  0  0  0  0  0  0  0  0  0  0  0
  1  2  1  0
  1  9  2  0
  2  3  2  0
  3 11  1  0
  3  4  1  0
  4  5  2  0
  5 12  1  0
  5  6  1  0
  6 39  1  0
  7  6  2  0
  8  4  1  0
  8  7  1  0
  9  8  1  0
 10  2  1  0
 12 13  1  0
 12 18  2  0
 13 14  2  0
 14 20  1  0
 14 15  1  0
 16 15  2  0
 16 17  1  0
 17 21  1  0
 18 16  1  0
 19 13  1  0
 22 17  1  0
 22 23  1  0
 23 32  1  0
 24 23  2  0
 24 33  1  0
 25 24  1  0
 26 27  1  0
 26 25  2  0
 27 22  2  0
 28 26  1  0
 29 28  1  0
 30 38  1  0
 31 25  1  0
 34 27  1  0
 35 29  1  0
 36 29  1  0
 37 30  1  0
 39 44  1  0
 40 39  2  0
 40 41  1  0
 41 42  2  0
 42 43  1  0
 42 49  1  0
 43 47  1  0
 44 48  1  0
 44 43  2  0
 45 40  1  0
 46 41  1  0
 49 50  1  0
 49 51  1  0
 52 49  1  0
 53  1  1  0
 54 53  1  0
 55 53  1  0
 56 53  1  0
M  END
>  <minimizedAffinity>  (173) 
-10.5848255

$$$$

     RDKit          3D

 71 66  0  0  1  0  0  0  0  0999 V2000
  -21.1300  -33.3990   52.5850 C   0  0  0  0  0  0  0  0  0  0  0  0
  -21.8110  -32.0730   52.4110 C   0  0  0  0  0  0  0  0  0  0  0  0
  -23.1550  -31.8330   53.0330 C   0  0  0  0  0  0  0  0  0  0  0  0
  -23.8180  -32.9180   53.8290 C   0  0  0  0  0  0  0  0  0  0  0  0
  -23.1380  -34.2430   54.0030 C   0  0  0  0  0  0  0  0  0  0  0  0
  -21.7940  -34.4830   53.3810 C   0  0  0  0  0  0  0  0  0  0  0  0
  -21.1130  -35.8090   53.5550 Cl  0  0  0  0  0  0  0  0  0  0  0  0
  -21.3550  -31.3270   51.8640 H   0  0  0  0  0  0  0  0  0  0  0  0
  -23.5940  -34.9890   54.5500 H   0  0  0  0  0  0  0  0  0  0  0  0
  -23.8360  -30.5080   52.8590 N   0  0  0  0  0  0  0  0  0  0  0  0
  -23.3770  -29.3190   53.6520 C   0  0  0  0  0  0  0  0  0  0  0  0
  -22.2390  -29.4560   54.6180 N   0  0  0  0  0  0  0  0  0  0  0  0
  -21.7800  -28.2690   55.4110 C   0  0  0  0  0  3  0  0  0  0  0  0
  -22.4600  -26.9440   55.2370 C   0  0  0  0  0  0  0  0  0  0  0  0
  -22.2300  -25.6050   55.8760 C   0  0  0  0  0  0  0  0  0  0  0  0
  -23.2270  -24.6410   55.3040 C   0  0  0  0  0  0  0  0  0  0  0  0
  -24.0730  -25.3830   54.3120 N   0  0  0  0  0  0  0  0  0  0  0  0
  -23.5990  -26.8060   54.2710 C   0  0  0  0  0  0  0  0  0  0  0  0
  -24.0580  -27.9940   53.4780 N   0  0  0  0  0  2  0  0  0  0  0  0
  -24.5830  -30.4170   52.2250 H   0  0  0  0  0  0  0  0  0  0  0  0
  -21.5120  -25.3870   56.5840 H   0  0  0  0  0  0  0  0  0  0  0  0
  -23.3150  -23.6430   55.5500 H   0  0  0  0  0  0  0  0  0  0  0  0
  -24.8100  -25.0030   53.7810 H   0  0  0  0  0  0  0  0  0  0  0  0
  -20.6410  -28.4050   56.3780 N   0  0  0  0  0  0  0  0  0  0  0  0
  -20.7890  -28.8180   57.2580 H   0  0  0  0  0  0  0  0  0  0  0  0
  -19.2740  -27.9120   56.0010 C   0  0  0  0  0  0  0  0  0  0  0  0
  -19.0010  -26.4390   55.9370 C   0  0  0  0  0  0  0  0  0  0  0  0
  -17.6350  -25.9460   55.5610 C   0  0  0  0  0  0  0  0  0  0  0  0
  -16.5440  -26.9250   55.2480 C   0  0  0  0  0  0  0  0  0  0  0  0
  -16.8180  -28.3990   55.3120 C   0  0  0  0  0  0  0  0  0  0  0  0
  -15.7260  -29.3790   55.0000 F   0  0  0  0  0  0  0  0  0  0  0  0
  -18.1830  -28.8920   55.6890 C   0  0  0  0  0  0  0  0  0  0  0  0
  -19.7520  -25.7640   56.1520 H   0  0  0  0  0  0  0  0  0  0  0  0
  -17.4470  -24.9320   55.5160 H   0  0  0  0  0  0  0  0  0  0  0  0
  -15.6040  -26.5870   54.9890 H   0  0  0  0  0  0  0  0  0  0  0  0
  -18.4580  -30.3660   55.7530 C   0  0  0  0  0  0  0  0  0  0  0  0
  -17.6620  -31.2360   56.6790 N   0  0  0  0  0  0  0  0  0  0  0  0
  -19.5270  -30.9680   54.8910 O   0  0  0  0  0  0  0  0  0  0  0  0
  -17.8410  -32.2040   56.7210 H   0  0  0  0  0  0  0  0  0  0  0  0
  -16.9590  -30.8410   57.2450 H   0  0  0  0  0  0  0  0  0  0  0  0
  -19.7870  -33.6390   51.9630 O   0  0  0  0  0  1  0  0  0  0  0  0
  -16.0400  -32.8120   54.3150 N   0  0  0  0  0 15  0  0  0  0  0  0
  -16.9280  -33.9600   54.6960 C   0  0  0  0  0  2  0  0  0  0  0  0
  -18.1770  -34.2360   53.9130 C   0  0  0  0  0  2  0  0  0  0  0  0
  -18.5380  -33.3630   52.7470 C   0  0  0  0  0  1  0  0  0  0  0  0
  -17.6510  -32.2160   52.3660 C   0  0  0  0  0  2  0  0  0  0  0  0
  -16.4020  -31.9410   53.1490 C   0  0  0  0  0  2  0  0  0  0  0  0
  -16.6700  -34.5820   55.5280 H   0  0  0  0  0  0  0  0  0  0  0  0
  -17.5600  -34.7790   54.9690 H   0  0  0  0  0  0  0  0  0  0  0  0
  -18.8090  -35.0540   54.1850 H   0  0  0  0  0  0  0  0  0  0  0  0
  -19.0680  -34.4320   53.3530 H   0  0  0  0  0  0  0  0  0  0  0  0
  -18.7970  -32.7410   51.9160 H   0  0  0  0  0  0  0  0  0  0  0  0
  -17.9090  -31.5930   51.5340 H   0  0  0  0  0  0  0  0  0  0  0  0
  -17.0180  -31.3970   52.0930 H   0  0  0  0  0  0  0  0  0  0  0  0
  -15.7690  -31.1220   52.8770 H   0  0  0  0  0  0  0  0  0  0  0  0
  -15.5110  -31.7440   53.7080 H   0  0  0  0  0  0  0  0  0  0  0  0
  -14.7910  -32.5380   55.0980 C   0  0  0  0  0  2  0  0  0  0  0  0
  -14.7930  -31.7870   55.8620 H   0  0  0  0  0  0  0  0  0  0  0  0
  -15.6840  -31.9830   55.3020 H   0  0  0  0  0  0  0  0  0  0  0  0
  -13.5400  -33.3130   54.8140 C   0  0  0  0  0  3  0  0  0  0  0  0
  -13.4200  -34.2990   55.2120 H   0  0  0  0  0  0  0  0  0  0  0  0
  -14.3130  -33.7460   55.4150 H   0  0  0  0  0  0  0  0  0  0  0  0
  -12.4570  -32.7070   53.9720 C   0  0  0  0  0  0  0  0  0  0  0  0
  -12.5760  -31.7210   53.5740 H   0  0  0  0  0  0  0  0  0  0  0  0
  -11.5640  -33.2600   53.7690 H   0  0  0  0  0  0  0  0  0  0  0  0
  -11.6840  -32.2750   53.3710 H   0  0  0  0  0  0  0  0  0  0  0  0
  -25.1620  -32.6770   54.4500 O   0  0  0  0  0  0  0  0  0  0  0  0
  -26.4080  -32.8470   53.6320 C   0  0  0  0  0  0  0  0  0  0  0  0
  -26.3380  -33.1390   52.6060 H   0  0  0  0  0  0  0  0  0  0  0  0
  -27.3670  -32.6750   54.0750 H   0  0  0  0  0  0  0  0  0  0  0  0
  -27.2960  -32.9680   53.0480 H   0  0  0  0  0  0  0  0  0  0  0  0
  1  6  1  0
  2  1  2  0
  2  3  1  0
  3  4  2  0
  4  5  1  0
  4 67  1  0
  5  9  1  0
  6  7  1  0
  6  5  2  0
  8  2  1  0
 10  3  1  0
 10 11  1  0
 11 12  2  0
 12 13  1  0
 13 24  1  0
 14 13  1  0
 14 15  1  0
 15 21  1  0
 16 22  1  0
 16 15  2  0
 17 16  1  0
 18 17  1  0
 18 14  2  0
 19 11  1  0
 19 18  1  0
 20 10  1  0
 23 17  1  0
 24 25  1  0
 26 24  1  0
 27 26  1  0
 27 33  1  0
 28 27  2  0
 29 30  2  0
 29 28  1  0
 30 32  1  0
 31 30  1  0
 32 36  1  0
 32 26  2  0
 34 28  1  0
 35 29  1  0
 36 37  1  0
 37 39  1  0
 37 40  1  0
 38 36  2  0
 41  1  1  0
 43 49  1  0
 43 48  1  0
 44 50  1  0
 47 56  1  0
 51 44  1  0
 52 45  1  0
 53 46  1  0
 54 46  1  0
 55 47  1  0
 57 59  1  0
 57 58  1  0
 60 61  1  0
 60 62  1  0
 63 60  1  0
 64 63  1  0
 65 63  1  0
 66 63  1  0
 68 70  1  0
 68 67  1  0
 69 68  1  0
 71 68  1  0
M  END
>  <minimizedAffinity>  (174) 
-8.74810982

$$$$

     RDKit          3D

 73 69  0  0  0  0  0  0  0  0999 V2000
  -26.7340  -28.4570   55.0770 N   0  0  0  0  0  1  0  0  0  0  0  0
  -25.5390  -27.5980   55.3700 C   0  0  0  0  0  3  0  0  0  0  0  0
  -25.5660  -26.1390   55.7180 N   0  0  0  0  0  0  0  0  0  0  0  0
  -24.1510  -25.6880   55.9300 C   0  0  0  0  0  0  0  0  0  0  0  0
  -23.5670  -24.3550   56.2920 C   0  0  0  0  0  0  0  0  0  0  0  0
  -22.0820  -24.2010   56.4380 C   0  0  0  0  0  0  0  0  0  0  0  0
  -21.1810  -25.3810   56.2210 C   0  0  0  0  0  0  0  0  0  0  0  0
  -21.7650  -26.7140   55.8580 C   0  0  0  0  0  0  0  0  0  0  0  0
  -23.2500  -26.8670   55.7130 C   0  0  0  0  0  0  0  0  0  0  0  0
  -24.1080  -28.0490   55.3670 N   0  0  0  0  0  0  0  0  0  0  0  0
  -27.6380  -28.0680   55.1040 H   0  0  0  0  0  0  0  0  0  0  0  0
  -24.1860  -23.5430   56.4420 H   0  0  0  0  0  0  0  0  0  0  0  0
  -21.6790  -23.2840   56.6870 H   0  0  0  0  0  0  0  0  0  0  0  0
  -21.1450  -27.5260   55.7090 H   0  0  0  0  0  0  0  0  0  0  0  0
  -23.7880  -28.9590   55.1720 H   0  0  0  0  0  0  0  0  0  0  0  0
  -26.5510  -29.9070   54.7430 C   0  0  0  0  0  2  0  0  0  0  0  0
  -26.8980  -30.6600   55.4190 H   0  0  0  0  0  0  0  0  0  0  0  0
  -27.0280  -29.6250   55.6580 H   0  0  0  0  0  0  0  0  0  0  0  0
  -25.8820  -30.3030   53.4600 C   0  0  0  0  0  2  0  0  0  0  0  0
  -26.1550  -29.8210   52.5440 H   0  0  0  0  0  0  0  0  0  0  0  0
  -26.6320  -29.5390   53.4590 H   0  0  0  0  0  0  0  0  0  0  0  0
  -24.8310  -31.3730   53.4610 C   0  0  0  0  0  3  0  0  0  0  0  0
  -25.1020  -32.3890   53.6580 H   0  0  0  0  0  0  0  0  0  0  0  0
  -25.8520  -31.6250   53.6580 H   0  0  0  0  0  0  0  0  0  0  0  0
  -20.5370  -30.3100   52.6330 N   0  0  0  0  0  2  0  0  0  0  0  0
  -20.8910  -31.6890   53.1040 C   0  0  0  0  0  3  0  0  0  0  0  0
  -22.3220  -32.0440   53.3800 C   0  0  0  0  0  2  0  0  0  0  0  0
  -23.4000  -31.0180   53.1850 N   0  0  0  0  0  2  0  0  0  0  0  0
  -23.0460  -29.6390   52.7130 C   0  0  0  0  0  3  0  0  0  0  0  0
  -21.6150  -29.2850   52.4370 C   0  0  0  0  0  2  0  0  0  0  0  0
  -20.1220  -32.4210   53.2430 H   0  0  0  0  0  0  0  0  0  0  0  0
  -21.1430  -32.6740   53.4400 H   0  0  0  0  0  0  0  0  0  0  0  0
  -22.5750  -33.0280   53.7160 H   0  0  0  0  0  0  0  0  0  0  0  0
  -23.3430  -32.2960   53.5770 H   0  0  0  0  0  0  0  0  0  0  0  0
  -23.8150  -28.9070   52.5740 H   0  0  0  0  0  0  0  0  0  0  0  0
  -22.7940  -28.6550   52.3770 H   0  0  0  0  0  0  0  0  0  0  0  0
  -21.3630  -28.3000   52.1010 H   0  0  0  0  0  0  0  0  0  0  0  0
  -20.5940  -29.0320   52.2410 H   0  0  0  0  0  0  0  0  0  0  0  0
  -19.1060  -29.9560   52.3570 C   0  0  0  0  0  0  0  0  0  0  0  0
  -18.3370  -30.6870   52.4960 H   0  0  0  0  0  0  0  0  0  0  0  0
  -18.8540  -28.9710   52.0200 H   0  0  0  0  0  0  0  0  0  0  0  0
  -18.0850  -29.7030   52.1600 H   0  0  0  0  0  0  0  0  0  0  0  0
  -19.6960  -25.2270   56.3660 O   0  0  0  0  0  0  0  0  0  0  0  0
  -18.7820  -26.3420   55.9500 C   0  0  0  0  0  0  0  0  0  0  0  0
  -17.4240  -26.0310   55.3950 C   0  0  0  0  0  0  0  0  0  0  0  0
  -16.5100  -27.1460   54.9790 C   0  0  0  0  0  0  0  0  0  0  0  0
  -16.9560  -28.5710   55.1180 C   0  0  0  0  0  0  0  0  0  0  0  0
  -18.3140  -28.8820   55.6720 C   0  0  0  0  0  0  0  0  0  0  0  0
  -19.2280  -27.7680   56.0880 C   0  0  0  0  0  0  0  0  0  0  0  0
  -17.1180  -25.0500   55.3000 H   0  0  0  0  0  0  0  0  0  0  0  0
  -15.5760  -26.9320   54.5970 H   0  0  0  0  0  0  0  0  0  0  0  0
  -18.6200  -29.8640   55.7680 H   0  0  0  0  0  0  0  0  0  0  0  0
  -20.1620  -27.9820   56.4700 H   0  0  0  0  0  0  0  0  0  0  0  0
  -16.0420  -29.6860   54.7010 N   0  0  0  0  0  0  0  0  0  0  0  0
  -15.2320  -30.4160   55.7320 C   0  0  0  0  0  0  0  0  0  0  0  0
  -15.3360  -30.0310   57.1780 O   0  0  0  0  0  0  0  0  0  0  0  0
  -14.3190  -31.5310   55.3150 N   0  0  0  0  0  0  0  0  0  0  0  0
  -15.9740  -29.9390   53.7520 H   0  0  0  0  0  0  0  0  0  0  0  0
  -14.2510  -31.7840   54.3660 H   0  0  0  0  0  0  0  0  0  0  0  0
  -13.5090  -32.2610   56.3450 C   0  0  0  0  0  0  0  0  0  0  0  0
  -12.3310  -31.5900   56.9870 C   0  0  0  0  0  0  0  0  0  0  0  0
  -11.5210  -32.3200   58.0170 C   0  0  0  0  0  0  0  0  0  0  0  0
  -11.8890  -33.7210   58.4050 C   0  0  0  0  0  0  0  0  0  0  0  0
  -13.0670  -34.3920   57.7640 C   0  0  0  0  0  0  0  0  0  0  0  0
  -13.8770  -33.6620   56.7340 C   0  0  0  0  0  0  0  0  0  0  0  0
  -15.0550  -34.3330   56.0920 F   0  0  0  0  0  0  0  0  0  0  0  0
  -12.0770  -30.6250   56.7200 H   0  0  0  0  0  0  0  0  0  0  0  0
  -11.3310  -34.2230   59.1140 H   0  0  0  0  0  0  0  0  0  0  0  0
  -13.3200  -35.3560   58.0310 H   0  0  0  0  0  0  0  0  0  0  0  0
  -10.3430  -31.6480   58.6580 C   0  0  0  0  0  0  0  0  0  0  0  0
   -9.1650  -30.9770   59.3000 F   0  0  0  0  0  0  0  0  0  0  0  0
  -11.2700  -30.7510   59.4230 F   0  0  0  0  0  0  0  0  0  0  0  0
   -9.4150  -32.5460   57.8940 F   0  0  0  0  0  0  0  0  0  0  0  0
  1 11  1  0
  2  3  2  0
  3  4  1  0
  4  5  1  0
  5  6  2  0
  5 12  1  0
  6 13  1  0
  7 43  1  0
  7  6  1  0
  8  7  2  0
  9  8  1  0
  9  4  2  0
 10  2  1  0
 10  9  1  0
 14  8  1  0
 15 10  1  0
 16 17  1  0
 16 18  1  0
 20 19  1  0
 21 19  1  0
 22 23  1  0
 22 24  1  0
 25 26  1  0
 26 31  1  0
 26 32  1  0
 27 34  1  0
 27 33  1  0
 28 22  1  0
 29 28  1  0
 35 29  1  0
 36 29  1  0
 37 30  1  0
 38 30  1  0
 39 40  1  0
 39 25  1  0
 41 39  1  0
 42 39  1  0
 44 49  1  0
 44 43  1  0
 45 44  2  0
 46 47  2  0
 46 45  1  0
 47 48  1  0
 48 52  1  0
 48 49  2  0
 49 53  1  0
 50 45  1  0
 51 46  1  0
 54 47  1  0
 54 55  1  0
 55 56  2  0
 57 55  1  0
 57 60  1  0
 58 54  1  0
 59 57  1  0
 60 65  2  0
 60 61  1  0
 61 62  2  0
 62 63  1  0
 62 70  1  0
 63 68  1  0
 64 69  1  0
 64 63  2  0
 65 64  1  0
 66 65  1  0
 67 61  1  0
 70 71  1  0
 70 72  1  0
 73 70  1  0
M  END
>  <minimizedAffinity>  (175) 
-11.4121408

$$$$

     RDKit          3D

 38 41  0  0  0  0  0  0  0  0999 V2000
  -24.5640  -24.9400   55.9520 N   0  0  0  0  0  0  0  0  0  0  0  0
  -23.0700  -24.9470   56.0900 C   0  0  0  0  0  0  0  0  0  0  0  0
  -22.3380  -23.6700   56.3780 N   0  0  0  0  0  0  0  0  0  0  0  0
  -20.8450  -23.6760   56.5170 C   0  0  0  0  0  0  0  0  0  0  0  0
  -20.0840  -24.9610   56.3680 C   0  0  0  0  0  0  0  0  0  0  0  0
  -20.8160  -26.2380   56.0800 C   0  0  0  0  0  0  0  0  0  0  0  0
  -22.3090  -26.2300   55.9410 N   0  0  0  0  0  0  0  0  0  0  0  0
  -25.0630  -24.0980   56.0500 H   0  0  0  0  0  0  0  0  0  0  0  0
  -20.3410  -22.7980   56.7150 H   0  0  0  0  0  0  0  0  0  0  0  0
  -19.0560  -24.9650   56.4630 H   0  0  0  0  0  0  0  0  0  0  0  0
  -20.0550  -27.5210   55.9310 C   0  0  0  0  0  0  0  0  0  0  0  0
  -20.6480  -28.8970   55.8650 C   0  0  0  0  0  0  0  0  0  0  0  0
  -19.5260  -29.8810   55.7150 N   0  0  0  0  0  0  0  0  0  0  0  0
  -18.2380  -29.1120   55.6880 N   0  0  0  0  0  0  0  0  0  0  0  0
  -16.8090  -29.5520   55.5590 N   0  0  0  0  0  0  0  0  0  0  0  0
  -15.7080  -28.5340   55.5630 C   0  0  0  0  0  0  0  0  0  0  0  0
  -16.0340  -27.0760   55.6970 C   0  0  0  0  0  0  0  0  0  0  0  0
  -17.4620  -26.6360   55.8260 C   0  0  0  0  0  0  0  0  0  0  0  0
  -18.5640  -27.6540   55.8210 C   0  0  0  0  0  0  0  0  0  0  0  0
  -21.6530  -29.1260   55.9150 H   0  0  0  0  0  0  0  0  0  0  0  0
  -14.7250  -28.8370   55.4750 H   0  0  0  0  0  0  0  0  0  0  0  0
  -15.2760  -26.3760   55.7000 H   0  0  0  0  0  0  0  0  0  0  0  0
  -17.6870  -25.6330   55.9170 H   0  0  0  0  0  0  0  0  0  0  0  0
  -25.3160  -28.6330   54.7080 C   0  0  0  0  0  0  0  0  0  0  0  0
  -26.7590  -28.7720   55.0880 C   0  0  0  0  0  0  0  0  0  0  0  0
  -27.4720  -27.6340   55.7560 C   0  0  0  0  0  0  0  0  0  0  0  0
  -26.7400  -26.3560   56.0440 C   0  0  0  0  0  0  0  0  0  0  0  0
  -25.2960  -26.2180   55.6640 C   0  0  0  0  0  0  0  0  0  0  0  0
  -24.5840  -27.3560   54.9960 C   0  0  0  0  0  0  0  0  0  0  0  0
  -27.2640  -29.6510   54.8900 H   0  0  0  0  0  0  0  0  0  0  0  0
  -28.4670  -27.7290   56.0180 H   0  0  0  0  0  0  0  0  0  0  0  0
  -27.2300  -25.5730   56.5040 H   0  0  0  0  0  0  0  0  0  0  0  0
  -23.5900  -27.2610   54.7340 H   0  0  0  0  0  0  0  0  0  0  0  0
  -24.6030  -29.7720   54.0400 O   0  0  0  0  0  0  0  0  0  0  0  0
  -23.4440  -29.5000   53.1280 C   0  0  0  0  0  0  0  0  0  0  0  0
  -23.1250  -28.4930   52.9550 H   0  0  0  0  0  0  0  0  0  0  0  0
  -22.9350  -30.3120   52.6520 H   0  0  0  0  0  0  0  0  0  0  0  0
  -22.6170  -29.3060   52.4780 H   0  0  0  0  0  0  0  0  0  0  0  0
  1  8  1  0
  1  2  1  0
  2  3  2  0
  3  4  1  0
  4  9  1  0
  5 10  1  0
  5  4  2  0
  6  5  1  0
  7  6  2  0
  7  2  1  0
 11  6  1  0
 12 20  1  0
 12 11  1  0
 13 12  2  0
 14 13  1  0
 14 19  1  0
 15 16  2  0
 15 14  1  0
 16 17  1  0
 17 22  1  0
 17 18  2  0
 18 23  1  0
 19 18  1  0
 19 11  2  0
 21 16  1  0
 24 29  2  0
 24 25  1  0
 25 26  2  0
 26 31  1  0
 26 27  1  0
 27 32  1  0
 28  1  1  0
 28 27  2  0
 29 28  1  0
 30 25  1  0
 33 29  1  0
 34 24  1  0
 35 34  1  0
 36 35  1  0
 37 35  1  0
 38 35  1  0
M  END
>  <minimizedAffinity>  (176) 
-8.62702274

$$$$

     RDKit          3D

 69 67  0  0  0  0  0  0  0  0999 V2000
  -24.4670  -26.5000   55.6720 C   0  0  0  0  0  0  0  0  0  0  0  0
  -24.3940  -25.0900   56.1780 C   0  0  0  0  0  0  0  0  0  0  0  0
  -23.0610  -24.4560   56.4400 C   0  0  0  0  0  0  0  0  0  0  0  0
  -21.8000  -25.2310   56.1960 C   0  0  0  0  0  0  0  0  0  0  0  0
  -20.4660  -24.5970   56.4580 N   0  0  0  0  0  0  0  0  0  0  0  0
  -19.2060  -25.3720   56.2130 C   0  0  0  0  0  0  0  0  0  0  0  0
  -19.2790  -26.7820   55.7070 N   0  0  0  0  0  0  0  0  0  0  0  0
  -20.6130  -27.4170   55.4450 C   0  0  0  0  0  0  0  0  0  0  0  0
  -20.6860  -28.8270   54.9390 N   0  0  0  0  0  0  0  0  0  0  0  0
  -21.8730  -26.6410   55.6900 C   0  0  0  0  0  0  0  0  0  0  0  0
  -23.2070  -27.2760   55.4280 C   0  0  0  0  0  0  0  0  0  0  0  0
  -25.2610  -24.5570   56.3470 H   0  0  0  0  0  0  0  0  0  0  0  0
  -23.0100  -23.4850   56.7890 H   0  0  0  0  0  0  0  0  0  0  0  0
  -18.2880  -24.9350   56.3940 H   0  0  0  0  0  0  0  0  0  0  0  0
  -21.5610  -29.2440   54.7670 H   0  0  0  0  0  0  0  0  0  0  0  0
  -23.2580  -28.2460   55.0800 H   0  0  0  0  0  0  0  0  0  0  0  0
  -19.4260  -29.6020   54.6950 C   0  0  0  0  0  0  0  0  0  0  0  0
  -18.7670  -29.5590   53.3480 C   0  0  0  0  0  0  0  0  0  0  0  0
  -17.5070  -30.3340   53.1030 C   0  0  0  0  0  0  0  0  0  0  0  0
  -16.9050  -31.1540   54.2060 C   0  0  0  0  0  0  0  0  0  0  0  0
  -17.5630  -31.1970   55.5530 C   0  0  0  0  0  0  0  0  0  0  0  0
  -18.8230  -30.4220   55.7980 C   0  0  0  0  0  0  0  0  0  0  0  0
  -19.1820  -28.9950   52.5890 H   0  0  0  0  0  0  0  0  0  0  0  0
  -17.0540  -30.3040   52.1760 H   0  0  0  0  0  0  0  0  0  0  0  0
  -17.1490  -31.7610   56.3120 H   0  0  0  0  0  0  0  0  0  0  0  0
  -19.2760  -30.4520   56.7250 H   0  0  0  0  0  0  0  0  0  0  0  0
  -15.6440  -31.9290   53.9620 O   0  0  0  0  0  0  0  0  0  0  0  0
  -15.3280  -33.1310   54.8020 C   0  0  0  0  0  0  0  0  0  0  0  0
  -15.9040  -34.0260   54.6930 H   0  0  0  0  0  0  0  0  0  0  0  0
  -15.1030  -33.9880   55.4010 H   0  0  0  0  0  0  0  0  0  0  0  0
  -14.2050  -33.0770   55.7950 C   0  0  0  0  0  0  0  0  0  0  0  0
  -12.9170  -33.7900   55.5090 C   0  0  0  0  0  0  0  0  0  0  0  0
  -11.7940  -33.7370   56.5020 C   0  0  0  0  0  0  0  0  0  0  0  0
  -11.9590  -32.9700   57.7810 C   0  0  0  0  0  0  0  0  0  0  0  0
  -13.2480  -32.2570   58.0670 C   0  0  0  0  0  0  0  0  0  0  0  0
  -14.3710  -32.3110   57.0740 C   0  0  0  0  0  0  0  0  0  0  0  0
  -12.8030  -34.3180   54.6290 H   0  0  0  0  0  0  0  0  0  0  0  0
  -10.9070  -34.2270   56.3060 H   0  0  0  0  0  0  0  0  0  0  0  0
  -11.1870  -32.9330   58.4640 H   0  0  0  0  0  0  0  0  0  0  0  0
  -15.2570  -31.8200   57.2700 H   0  0  0  0  0  0  0  0  0  0  0  0
  -13.4130  -31.4910   59.3450 C   0  0  0  0  0  0  0  0  0  0  0  0
  -13.5780  -30.7240   60.6240 F   0  0  0  0  0  0  0  0  0  0  0  0
  -14.5740  -30.7500   58.7510 F   0  0  0  0  0  0  0  0  0  0  0  0
  -12.2520  -32.2310   59.9400 F   0  0  0  0  0  0  0  0  0  0  0  0
  -28.1960  -27.4740   55.2050 C   0  0  0  0  0 15  0  0  0  0  0  0
  -27.5110  -28.7490   54.8100 C   0  0  0  0  0  2  0  0  0  0  0  0
  -26.0320  -28.5390   54.9370 C   0  0  0  0  0  0  0  0  0  0  0  0
  -25.8010  -27.1350   55.4110 C   0  0  0  0  0  0  0  0  0  0  0  0
  -27.1380  -26.4760   55.5770 O   0  0  0  0  0  1  0  0  0  0  0  0
  -27.9770  -29.6170   54.5040 H   0  0  0  0  0  0  0  0  0  0  0  0
  -25.3000  -29.2380   54.7340 H   0  0  0  0  0  0  0  0  0  0  0  0
  -29.6770  -27.2380   55.2260 C   0  0  0  0  0  2  0  0  0  0  0  0
  -30.3050  -27.7150   54.5030 H   0  0  0  0  0  0  0  0  0  0  0  0
  -29.2490  -27.8830   54.4890 H   0  0  0  0  0  0  0  0  0  0  0  0
  -30.2780  -26.3320   56.2610 N   0  0  0  0  0  1  0  0  0  0  0  0
  -30.0180  -25.3460   56.2880 H   0  0  0  0  0  0  0  0  0  0  0  0
  -31.2600  -26.8780   57.2550 C   0  0  0  0  0  2  0  0  0  0  0  0
  -32.2450  -27.1500   56.9410 H   0  0  0  0  0  0  0  0  0  0  0  0
  -31.5460  -26.7600   56.2310 H   0  0  0  0  0  0  0  0  0  0  0  0
  -30.8580  -27.0440   58.6910 C   0  0  0  0  0  3  0  0  0  0  0  0
  -31.2340  -26.3720   59.4330 H   0  0  0  0  0  0  0  0  0  0  0  0
  -31.5210  -26.2540   58.4090 H   0  0  0  0  0  0  0  0  0  0  0  0
  -29.9270  -28.1530   59.0850 S   0  0  1  0  0  0  0  0  0  0  0  0
  -31.1030  -29.0210   59.4180 O   0  0  0  0  0  0  0  0  0  0  0  0
  -28.7510  -27.2840   58.7520 O   0  0  0  0  0  0  0  0  0  0  0  0
  -28.9970  -29.2610   59.4790 C   0  0  0  0  0  0  0  0  0  0  0  0
  -27.9380  -29.1200   59.4140 H   0  0  0  0  0  0  0  0  0  0  0  0
  -29.3910  -30.1930   59.8250 H   0  0  0  0  0  0  0  0  0  0  0  0
  -28.3320  -30.0520   59.7610 H   0  0  0  0  0  0  0  0  0  0  0  0
  1  2  1  0
  2 12  1  0
  2  3  2  0
  3 13  1  0
  4  3  1  0
  4  5  1  0
  6 14  1  0
  6  5  2  0
  7  6  1  0
  8 10  1  0
  8  7  2  0
  9  8  1  0
 10  4  2  0
 11  1  2  0
 11 10  1  0
 15  9  1  0
 16 11  1  0
 17  9  1  0
 17 22  1  0
 18 17  2  0
 19 18  1  0
 19 20  2  0
 20 21  1  0
 21 22  2  0
 21 25  1  0
 22 26  1  0
 23 18  1  0
 24 19  1  0
 27 20  1  0
 27 28  1  0
 28 30  1  0
 28 31  1  0
 29 28  1  0
 31 36  1  0
 32 31  2  0
 32 33  1  0
 33 34  2  0
 34 35  1  0
 34 39  1  0
 35 41  1  0
 36 40  1  0
 36 35  2  0
 37 32  1  0
 38 33  1  0
 41 44  1  0
 41 42  1  0
 43 41  1  0
 46 47  1  0
 47 48  2  0
 48 49  1  0
 48  1  1  0
 50 46  1  0
 51 47  1  0
 53 52  1  0
 54 52  1  0
 55 56  1  0
 58 57  1  0
 59 57  1  0
 60 63  1  0
 60 61  1  0
 62 60  1  0
 63 64  2  0
 63 66  1  0
 65 63  2  0
 66 69  1  0
 66 68  1  0
 67 66  1  0
M  END
>  <minimizedAffinity>  (177) 
-11.7882233

$$$$

     RDKit          3D

 42 45  0  0  0  0  0  0  0  0999 V2000
  -18.2310  -31.2370   53.1520 N   0  0  0  0  0  0  0  0  0  0  0  0
  -19.6740  -30.8480   53.0290 C   0  0  0  0  0  0  0  0  0  0  0  0
  -20.5740  -31.5910   52.0870 N   0  0  0  0  0  0  0  0  0  0  0  0
  -22.0170  -31.2020   51.9630 C   0  0  0  0  0  0  0  0  0  0  0  0
  -22.5610  -30.0700   52.7840 C   0  0  0  0  0  0  0  0  0  0  0  0
  -21.6620  -29.3270   53.7270 C   0  0  0  0  0  0  0  0  0  0  0  0
  -20.2180  -29.7160   53.8490 N   0  0  0  0  0  0  0  0  0  0  0  0
  -17.8740  -31.9800   52.6130 H   0  0  0  0  0  0  0  0  0  0  0  0
  -22.6360  -31.7130   51.3150 H   0  0  0  0  0  0  0  0  0  0  0  0
  -23.5540  -29.8020   52.7000 H   0  0  0  0  0  0  0  0  0  0  0  0
  -22.2060  -28.1960   54.5470 C   0  0  0  0  0  0  0  0  0  0  0  0
  -23.6440  -27.9870   54.9180 C   0  0  0  0  0  0  0  0  0  0  0  0
  -23.7350  -26.7360   55.7410 N   0  0  0  0  0  0  0  0  0  0  0  0
  -22.3510  -26.1710   55.8780 N   0  0  0  0  0  0  0  0  0  0  0  0
  -21.8300  -24.9520   56.5800 N   0  0  0  0  0  0  0  0  0  0  0  0
  -20.3650  -24.6350   56.5440 C   0  0  0  0  0  0  0  0  0  0  0  0
  -19.4200  -25.5370   55.8060 C   0  0  0  0  0  0  0  0  0  0  0  0
  -19.9410  -26.7560   55.1050 C   0  0  0  0  0  0  0  0  0  0  0  0
  -21.4070  -27.0730   55.1410 C   0  0  0  0  0  0  0  0  0  0  0  0
  -24.4330  -28.5970   54.6540 H   0  0  0  0  0  0  0  0  0  0  0  0
  -20.0060  -23.7960   57.0270 H   0  0  0  0  0  0  0  0  0  0  0  0
  -18.4120  -25.3180   55.7820 H   0  0  0  0  0  0  0  0  0  0  0  0
  -19.2910  -27.3760   54.5970 H   0  0  0  0  0  0  0  0  0  0  0  0
  -15.6550  -30.4990   56.0800 C   0  0  0  0  0  0  0  0  0  0  0  0
  -16.5550  -31.2430   55.1370 C   0  0  0  0  0  0  0  0  0  0  0  0
  -17.3310  -30.4940   54.0950 C   0  0  0  0  0  0  0  0  0  0  0  0
  -17.2090  -29.0020   53.9960 C   0  0  0  0  0  0  0  0  0  0  0  0
  -16.3100  -28.2590   54.9390 C   0  0  0  0  0  0  0  0  0  0  0  0
  -15.5330  -29.0080   55.9800 C   0  0  0  0  0  0  0  0  0  0  0  0
  -16.6390  -32.2690   55.2050 H   0  0  0  0  0  0  0  0  0  0  0  0
  -17.7430  -28.4870   53.2790 H   0  0  0  0  0  0  0  0  0  0  0  0
  -14.9140  -28.4960   56.6290 H   0  0  0  0  0  0  0  0  0  0  0  0
  -14.8790  -31.2480   57.1220 O   0  0  0  0  0  0  0  0  0  0  0  0
  -15.6010  -32.0550   58.1600 C   0  0  0  0  0  0  0  0  0  0  0  0
  -15.0480  -32.5900   58.9030 H   0  0  0  0  0  0  0  0  0  0  0  0
  -16.6710  -32.0960   58.1560 H   0  0  0  0  0  0  0  0  0  0  0  0
  -16.1180  -32.6310   58.9000 H   0  0  0  0  0  0  0  0  0  0  0  0
  -16.1870  -26.7670   54.8390 O   0  0  0  0  0  0  0  0  0  0  0  0
  -15.5660  -25.9900   55.9620 C   0  0  0  0  0  0  0  0  0  0  0  0
  -15.2110  -26.4990   56.8330 H   0  0  0  0  0  0  0  0  0  0  0  0
  -15.4790  -24.9260   55.8910 H   0  0  0  0  0  0  0  0  0  0  0  0
  -15.1230  -25.4350   56.7610 H   0  0  0  0  0  0  0  0  0  0  0  0
  1 26  1  0
  2  1  1  0
  2  7  1  0
  3  2  2  0
  4  3  1  0
  4  5  2  0
  5  6  1  0
  6  7  2  0
  6 11  1  0
  8  1  1  0
  9  4  1  0
 10  5  1  0
 11 12  1  0
 11 19  2  0
 12 13  2  0
 13 14  1  0
 14 15  1  0
 16 15  2  0
 16 21  1  0
 17 16  1  0
 18 19  1  0
 18 17  2  0
 19 14  1  0
 20 12  1  0
 22 17  1  0
 23 18  1  0
 24 33  1  0
 25 30  1  0
 25 24  2  0
 26 25  1  0
 27 26  2  0
 27 28  1  0
 28 29  2  0
 29 24  1  0
 29 32  1  0
 31 27  1  0
 33 34  1  0
 34 37  1  0
 34 35  1  0
 36 34  1  0
 38 28  1  0
 38 39  1  0
 39 42  1  0
 39 40  1  0
 41 39  1  0
M  END
>  <minimizedAffinity>  (178) 
-7.79863882

$$$$

     RDKit          3D

 46 48  0  0  0  0  0  0  0  0999 V2000
  -18.8060  -29.9150   55.5160 C   0  0  0  0  0  0  0  0  0  0  0  0
  -19.3070  -28.5470   55.8750 C   0  0  0  0  0  0  0  0  0  0  0  0
  -20.6610  -28.0990   55.4100 C   0  0  0  0  0  0  0  0  0  0  0  0
  -21.5140  -29.0180   54.5880 C   0  0  0  0  0  0  0  0  0  0  0  0
  -21.0130  -30.3860   54.2290 C   0  0  0  0  0  0  0  0  0  0  0  0
  -19.6590  -30.8340   54.6940 C   0  0  0  0  0  0  0  0  0  0  0  0
  -18.7200  -27.9140   56.4410 H   0  0  0  0  0  0  0  0  0  0  0  0
  -22.4450  -28.7100   54.2680 H   0  0  0  0  0  0  0  0  0  0  0  0
  -21.1620  -26.7310   55.7680 C   0  0  0  0  0  0  0  0  0  0  0  0
  -22.6250  -26.4180   55.6660 C   0  0  0  0  0  0  0  0  0  0  0  0
  -23.1260  -25.0500   56.0240 C   0  0  0  0  0  0  0  0  0  0  0  0
  -22.1640  -23.9960   56.4850 C   0  0  0  0  0  0  0  0  0  0  0  0
  -20.7010  -24.3090   56.5880 C   0  0  0  0  0  0  0  0  0  0  0  0
  -20.2000  -25.6770   56.2290 C   0  0  0  0  0  0  0  0  0  0  0  0
  -23.2870  -27.1430   55.3490 H   0  0  0  0  0  0  0  0  0  0  0  0
  -24.1330  -24.8340   55.9530 H   0  0  0  0  0  0  0  0  0  0  0  0
  -22.5090  -23.0550   56.7310 H   0  0  0  0  0  0  0  0  0  0  0  0
  -20.0390  -23.5840   56.9050 H   0  0  0  0  0  0  0  0  0  0  0  0
  -19.1930  -25.8920   56.3000 H   0  0  0  0  0  0  0  0  0  0  0  0
  -14.7440  -31.2590   56.9100 C   0  0  0  0  0  0  0  0  0  0  0  0
  -14.8670  -30.0980   55.9680 C   0  0  0  0  0  0  0  0  0  0  0  0
  -16.2210  -29.6500   55.5030 C   0  0  0  0  0  0  0  0  0  0  0  0
  -17.4520  -30.3630   55.9810 C   0  0  0  0  0  0  0  0  0  0  0  0
  -17.3280  -31.5230   56.9230 C   0  0  0  0  0  0  0  0  0  0  0  0
  -15.9740  -31.9720   57.3870 C   0  0  0  0  0  0  0  0  0  0  0  0
  -14.0210  -29.6080   55.6390 H   0  0  0  0  0  0  0  0  0  0  0  0
  -16.3060  -28.8510   54.8550 H   0  0  0  0  0  0  0  0  0  0  0  0
  -18.1750  -32.0140   57.2510 H   0  0  0  0  0  0  0  0  0  0  0  0
  -15.8890  -32.7700   58.0360 H   0  0  0  0  0  0  0  0  0  0  0  0
  -13.3900  -31.7070   57.3740 N   0  0  0  0  0  0  0  0  0  0  0  0
  -12.6680  -31.0480   57.4960 H   0  0  0  0  0  0  0  0  0  0  0  0
  -13.1350  -33.1590   57.6530 S   0  0  1  0  0  0  0  0  0  0  0  0
  -13.0520  -32.8620   59.1210 O   0  0  0  0  0  0  0  0  0  0  0  0
  -13.2170  -33.4550   56.1850 O   0  0  0  0  0  0  0  0  0  0  0  0
  -12.8800  -34.6100   57.9320 C   0  0  0  0  0  0  0  0  0  0  0  0
  -12.7380  -34.9450   58.9380 H   0  0  0  0  0  0  0  0  0  0  0  0
  -12.8400  -35.3110   57.1240 H   0  0  0  0  0  0  0  0  0  0  0  0
  -12.6980  -35.6460   58.1310 H   0  0  0  0  0  0  0  0  0  0  0  0
  -21.8660  -31.3050   53.4070 C   0  0  0  0  0  0  0  0  0  0  0  0
  -23.2310  -31.6950   53.8900 N   0  0  0  0  0  0  0  0  0  0  0  0
  -21.3530  -31.8350   52.1000 O   0  0  0  0  0  0  0  0  0  0  0  0
  -23.5670  -31.3470   54.7480 H   0  0  0  0  0  0  0  0  0  0  0  0
  -23.7910  -32.2990   53.3500 H   0  0  0  0  0  0  0  0  0  0  0  0
  -19.1580  -32.2020   54.3350 N   0  0  0  0  0  0  0  0  0  0  0  0
  -19.7170  -32.8060   53.7950 H   0  0  0  0  0  0  0  0  0  0  0  0
  -18.2690  -32.4960   54.6400 H   0  0  0  0  0  0  0  0  0  0  0  0
  1  2  1  0
  1 23  1  0
  2  7  1  0
  3  9  1  0
  3  2  2  0
  4  3  1  0
  5  4  2  0
  5  6  1  0
  6  1  2  0
  8  4  1  0
  9 14  1  0
 10  9  2  0
 10 11  1  0
 11 12  2  0
 12 13  1  0
 12 17  1  0
 13 18  1  0
 14 19  1  0
 14 13  2  0
 15 10  1  0
 16 11  1  0
 20 30  1  0
 20 25  1  0
 21 20  2  0
 22 21  1  0
 22 23  2  0
 23 24  1  0
 24 28  1  0
 24 25  2  0
 25 29  1  0
 26 21  1  0
 27 22  1  0
 30 31  1  0
 30 32  1  0
 32 35  1  0
 32 33  2  0
 34 32  2  0
 35 38  1  0
 35 36  1  0
 37 35  1  0
 39 40  1  0
 39  5  1  0
 40 42  1  0
 41 39  2  0
 43 40  1  0
 44 46  1  0
 44  6  1  0
 45 44  1  0
M  END
>  <minimizedAffinity>  (179) 
-8.39505291

$$$$

     RDKit          3D

 46 44  0  0  0  0  0  0  0  0999 V2000
  -20.3550  -26.4680   55.8690 C   0  0  0  0  0  0  0  0  0  0  0  0
  -19.1740  -25.5790   55.6120 C   0  0  0  0  0  0  0  0  0  0  0  0
  -17.8050  -26.1750   55.4630 C   0  0  0  0  0  0  0  0  0  0  0  0
  -17.6180  -27.6590   55.5720 N   0  0  0  0  0  0  0  0  0  0  0  0
  -18.7980  -28.5480   55.8280 C   0  0  0  0  0  0  0  0  0  0  0  0
  -18.6090  -30.0320   55.9360 N   0  0  0  0  0  0  0  0  0  0  0  0
  -20.1670  -27.9530   55.9770 N   0  0  0  0  0  0  0  0  0  0  0  0
  -19.3030  -24.5580   55.5380 H   0  0  0  0  0  0  0  0  0  0  0  0
  -16.9930  -25.5640   55.2870 H   0  0  0  0  0  0  0  0  0  0  0  0
  -19.3850  -30.6150   56.1050 H   0  0  0  0  0  0  0  0  0  0  0  0
  -24.7640  -28.3990   55.1280 C   0  0  0  0  0  0  0  0  0  0  0  0
  -25.8770  -27.4310   55.4030 C   0  0  0  0  0  0  0  0  0  0  0  0
  -25.5630  -26.0350   55.8550 N   0  0  0  0  0  0  0  0  0  0  0  0
  -24.1360  -25.6080   56.0320 N   0  0  0  0  0  0  0  0  0  0  0  0
  -23.5240  -24.3080   56.4620 N   0  0  0  0  0  0  0  0  0  0  0  0
  -22.0330  -24.4720   56.4540 C   0  0  0  0  0  0  0  0  0  0  0  0
  -21.7230  -25.8730   56.0180 C   0  0  0  0  0  0  0  0  0  0  0  0
  -23.0240  -26.5750   55.7570 C   0  0  0  0  0  0  0  0  0  0  0  0
  -23.3380  -27.9710   55.3060 C   0  0  0  0  0  0  0  0  0  0  0  0
  -24.9800  -29.3590   54.8180 H   0  0  0  0  0  0  0  0  0  0  0  0
  -26.8590  -27.7250   55.2810 H   0  0  0  0  0  0  0  0  0  0  0  0
  -21.3410  -23.7470   56.7040 H   0  0  0  0  0  0  0  0  0  0  0  0
  -22.5720  -28.6370   55.1170 H   0  0  0  0  0  0  0  0  0  0  0  0
  -17.2410  -30.6270   55.7870 C   0  0  0  0  0  0  0  0  0  0  0  0
  -16.4800  -30.0920   55.2610 H   0  0  0  0  0  0  0  0  0  0  0  0
  -16.2650  -31.0520   55.6820 H   0  0  0  0  0  0  0  0  0  0  0  0
  -16.9410  -31.9730   56.3770 C   0  0  0  0  0  0  0  0  0  0  0  0
  -16.9910  -32.8500   55.7660 H   0  0  0  0  0  0  0  0  0  0  0  0
  -16.7270  -32.9330   56.7990 H   0  0  0  0  0  0  0  0  0  0  0  0
  -16.5700  -32.0910   57.8270 C   0  0  0  0  0  0  0  0  0  0  0  0
  -17.3090  -31.9280   58.5820 H   0  0  0  0  0  0  0  0  0  0  0  0
  -16.3060  -32.1750   58.8590 H   0  0  0  0  0  0  0  0  0  0  0  0
  -15.1640  -32.4370   58.2140 N   0  0  0  0  0  1  0  0  0  0  0  0
  -14.5590  -33.7350   57.7630 C   0  0  0  0  0  2  0  0  0  0  0  0
  -13.1530  -34.0810   58.1510 C   0  0  0  0  0  2  0  0  0  0  0  0
  -12.3500  -33.1320   58.9890 O   0  0  0  0  0  1  0  0  0  0  0  0
  -12.9530  -31.8350   59.4400 C   0  0  0  0  0  3  0  0  0  0  0  0
  -14.3600  -31.4870   59.0530 C   0  0  0  0  0  2  0  0  0  0  0  0
  -15.1320  -34.4120   57.1660 H   0  0  0  0  0  0  0  0  0  0  0  0
  -14.1280  -34.6590   57.4420 H   0  0  0  0  0  0  0  0  0  0  0  0
  -12.7220  -35.0070   57.8290 H   0  0  0  0  0  0  0  0  0  0  0  0
  -12.1490  -34.3290   58.4280 H   0  0  0  0  0  0  0  0  0  0  0  0
  -12.3810  -31.1570   60.0380 H   0  0  0  0  0  0  0  0  0  0  0  0
  -13.3840  -30.9090   59.7620 H   0  0  0  0  0  0  0  0  0  0  0  0
  -14.7910  -30.5620   59.3740 H   0  0  0  0  0  0  0  0  0  0  0  0
  -15.3630  -31.2400   58.7770 H   0  0  0  0  0  0  0  0  0  0  0  0
  1  7  2  0
  1 17  1  0
  2  1  1  0
  3  4  1  0
  3  2  2  0
  4  5  2  0
  5  6  1  0
  5  7  1  0
  6 10  1  0
  8  2  1  0
  9  3  1  0
 11 19  2  0
 11 12  1  0
 12 13  2  0
 13 14  1  0
 14 15  1  0
 16 15  2  0
 16 22  1  0
 17 16  1  0
 18 17  2  0
 18 14  1  0
 19 18  1  0
 20 11  1  0
 21 12  1  0
 23 19  1  0
 24  6  1  0
 24 27  1  0
 25 24  1  0
 26 24  1  0
 27 29  1  0
 27 30  1  0
 28 27  1  0
 30 33  1  0
 30 31  1  0
 30 32  1  0
 35 42  1  0
 36 37  1  0
 37 44  1  0
 37 43  1  0
 38 45  1  0
 39 34  1  0
 40 34  1  0
 41 35  1  0
 46 38  1  0
M  END
>  <minimizedAffinity>  (180) 
-10.3141565

$$$$

     RDKit          3D

 54 49  0  0  0  0  0  0  0  0999 V2000
  -17.5710  -29.3220   54.8000 N   0  0  0  0  0  0  0  0  0  0  0  0
  -16.7750  -28.3620   55.6340 C   0  0  0  0  0  0  0  0  0  0  0  0
  -17.6980  -27.2740   56.0960 N   0  0  0  0  0  2  0  0  0  0  0  0
  -19.0640  -27.5620   55.5480 C   0  0  0  0  0  0  0  0  0  0  0  0
  -18.9860  -28.8270   54.7470 C   0  0  0  0  0  0  0  0  0  0  0  0
  -15.7690  -28.4370   55.8510 H   0  0  0  0  0  0  0  0  0  0  0  0
  -15.9910  -33.0350   52.8080 N   0  0  0  0  0 15  0  0  0  0  0  0
  -16.7150  -32.0000   51.9980 C   0  0  0  0  0  2  0  0  0  0  0  0
  -17.2410  -30.7620   52.6630 C   0  0  0  0  0  2  0  0  0  0  0  0
  -17.0440  -30.5600   54.1360 C   0  0  0  0  0  1  0  0  0  0  0  0
  -16.3210  -31.5950   54.9450 C   0  0  0  0  0  2  0  0  0  0  0  0
  -15.7950  -32.8330   54.2810 C   0  0  0  0  0  2  0  0  0  0  0  0
  -16.8550  -32.1440   50.9470 H   0  0  0  0  0  0  0  0  0  0  0  0
  -17.2310  -31.2610   51.4210 H   0  0  0  0  0  0  0  0  0  0  0  0
  -17.7570  -30.0230   52.0850 H   0  0  0  0  0  0  0  0  0  0  0  0
  -17.6170  -29.8790   53.1360 H   0  0  0  0  0  0  0  0  0  0  0  0
  -16.9040  -30.4160   55.1870 H   0  0  0  0  0  0  0  0  0  0  0  0
  -16.1810  -31.4510   55.9960 H   0  0  0  0  0  0  0  0  0  0  0  0
  -15.8050  -32.3340   55.5220 H   0  0  0  0  0  0  0  0  0  0  0  0
  -15.2790  -33.5720   54.8580 H   0  0  0  0  0  0  0  0  0  0  0  0
  -15.4190  -33.7160   53.8070 H   0  0  0  0  0  0  0  0  0  0  0  0
  -15.4650  -34.2730   52.1430 C   0  0  0  0  0  3  0  0  0  0  0  0
  -15.6050  -34.4170   51.0920 H   0  0  0  0  0  0  0  0  0  0  0  0
  -14.9490  -35.0110   52.7210 H   0  0  0  0  0  0  0  0  0  0  0  0
  -15.0890  -35.1560   51.6700 H   0  0  0  0  0  0  0  0  0  0  0  0
  -20.2940  -26.7290   55.7630 C   0  0  0  0  0  0  0  0  0  0  0  0
  -20.1640  -25.3000   56.1980 C   0  0  0  0  0  0  0  0  0  0  0  0
  -21.3940  -24.4670   56.4130 C   0  0  0  0  0  0  0  0  0  0  0  0
  -22.7520  -25.0640   56.1930 C   0  0  0  0  0  0  0  0  0  0  0  0
  -23.9810  -24.2310   56.4090 F   0  0  0  0  0  0  0  0  0  0  0  0
  -22.8810  -26.4940   55.7590 C   0  0  0  0  0  0  0  0  0  0  0  0
  -21.6520  -27.3260   55.5440 C   0  0  0  0  0  0  0  0  0  0  0  0
  -19.2300  -24.8880   56.3490 H   0  0  0  0  0  0  0  0  0  0  0  0
  -21.3050  -23.4840   56.7120 H   0  0  0  0  0  0  0  0  0  0  0  0
  -23.8150  -26.9040   55.6080 H   0  0  0  0  0  0  0  0  0  0  0  0
  -21.7410  -28.3100   55.2440 H   0  0  0  0  0  0  0  0  0  0  0  0
  -20.1230  -29.4830   54.0200 C   0  0  0  0  0  0  0  0  0  0  0  0
  -20.6690  -28.8650   52.7680 C   0  0  0  0  0  0  0  0  0  0  0  0
  -21.8060  -29.5210   52.0410 C   0  0  0  0  0  0  0  0  0  0  0  0
  -22.3950  -30.7960   52.5680 N   0  0  0  0  0  0  0  0  0  0  0  0
  -21.8490  -31.4140   53.8210 C   0  0  0  0  0  0  0  0  0  0  0  0
  -22.4390  -32.6890   54.3470 N   0  0  0  0  0  0  0  0  0  0  0  0
  -20.7130  -30.7580   54.5470 N   0  0  0  0  0  0  0  0  0  0  0  0
  -20.2640  -27.9870   52.4060 H   0  0  0  0  0  0  0  0  0  0  0  0
  -22.1820  -29.0960   51.1800 H   0  0  0  0  0  0  0  0  0  0  0  0
  -22.0800  -33.0950   55.1690 H   0  0  0  0  0  0  0  0  0  0  0  0
  -23.5760  -33.3460   53.6210 C   0  0  0  0  0  0  0  0  0  0  0  0
  -23.3810  -33.9590   52.7670 H   0  0  0  0  0  0  0  0  0  0  0  0
  -24.3860  -33.8130   53.1030 H   0  0  0  0  0  0  0  0  0  0  0  0
  -24.9840  -33.1410   54.0930 C   0  0  0  0  0  0  0  0  0  0  0  0
  -25.7590  -33.8060   53.7720 H   0  0  0  0  0  0  0  0  0  0  0  0
  -25.9890  -32.9940   54.4300 H   0  0  0  0  0  0  0  0  0  0  0  0
  -25.3080  -32.0030   55.0150 O   0  0  0  0  0  0  0  0  0  0  0  0
  -24.6060  -31.4000   55.3060 H   0  0  0  0  0  0  0  0  0  0  0  0
  1  2  2  0
  2  6  1  0
  2  3  1  0
  4 26  1  0
  4  3  1  0
  5  1  1  0
  5  4  2  0
  9 16  1  0
 10 17  1  0
 11 19  1  0
 11 18  1  0
 12 20  1  0
 13  8  1  0
 14  8  1  0
 15  9  1  0
 21 12  1  0
 22 24  1  0
 23 22  1  0
 25 22  1  0
 26 27  1  0
 27 33  1  0
 27 28  2  0
 28 34  1  0
 29 30  1  0
 29 28  1  0
 31 29  2  0
 32 31  1  0
 32 26  2  0
 35 31  1  0
 36 32  1  0
 37 43  2  0
 37  5  1  0
 38 37  1  0
 39 40  1  0
 39 38  2  0
 40 41  2  0
 41 42  1  0
 41 43  1  0
 42 46  1  0
 44 38  1  0
 45 39  1  0
 47 50  1  0
 47 42  1  0
 48 47  1  0
 49 47  1  0
 50 52  1  0
 50 53  1  0
 51 50  1  0
 53 54  1  0
M  END
>  <minimizedAffinity>  (181) 
-8.25420094

$$$$

     RDKit          3D

 37 40  0  0  0  0  0  0  0  0999 V2000
  -18.8760  -26.7200   55.8210 C   0  0  0  0  0  0  0  0  0  0  0  0
  -18.6490  -27.9420   54.9820 C   0  0  0  0  0  0  0  0  0  0  0  0
  -17.2670  -28.5090   54.8420 C   0  0  0  0  0  0  0  0  0  0  0  0
  -16.1130  -27.8550   55.5420 C   0  0  0  0  0  0  0  0  0  0  0  0
  -16.3410  -26.6320   56.3810 C   0  0  0  0  0  0  0  0  0  0  0  0
  -17.7220  -26.0650   56.5210 N   0  0  0  0  0  0  0  0  0  0  0  0
  -19.4430  -28.3920   54.5010 H   0  0  0  0  0  0  0  0  0  0  0  0
  -15.1630  -28.2450   55.4450 H   0  0  0  0  0  0  0  0  0  0  0  0
  -15.5460  -26.1820   56.8630 H   0  0  0  0  0  0  0  0  0  0  0  0
  -24.4020  -24.4500   56.3810 F   0  0  0  0  0  0  0  0  0  0  0  0
  -23.0200  -25.0170   56.2410 C   0  0  0  0  0  0  0  0  0  0  0  0
  -22.8330  -26.4230   55.7520 C   0  0  0  0  0  0  0  0  0  0  0  0
  -21.4520  -26.9900   55.6120 C   0  0  0  0  0  0  0  0  0  0  0  0
  -20.2580  -26.1520   55.9610 C   0  0  0  0  0  0  0  0  0  0  0  0
  -20.4450  -24.7470   56.4510 C   0  0  0  0  0  0  0  0  0  0  0  0
  -21.8270  -24.1790   56.5910 C   0  0  0  0  0  0  0  0  0  0  0  0
  -23.6550  -27.0000   55.5120 H   0  0  0  0  0  0  0  0  0  0  0  0
  -21.3230  -27.9580   55.2750 H   0  0  0  0  0  0  0  0  0  0  0  0
  -19.6240  -24.1700   56.6910 H   0  0  0  0  0  0  0  0  0  0  0  0
  -21.9550  -23.2120   56.9270 H   0  0  0  0  0  0  0  0  0  0  0  0
  -17.0400  -29.7310   54.0030 C   0  0  0  0  0  0  0  0  0  0  0  0
  -17.3940  -29.8840   52.5530 C   0  0  0  0  0  0  0  0  0  0  0  0
  -16.9920  -31.2620   52.1190 N   0  0  0  0  0  0  0  0  0  0  0  0
  -16.3890  -31.9620   53.3010 N   0  0  0  0  0  0  0  0  0  0  0  0
  -16.4190  -31.0150   54.4650 C   0  0  0  0  0  0  0  0  0  0  0  0
  -17.8370  -29.1660   51.9580 H   0  0  0  0  0  0  0  0  0  0  0  0
  -17.1030  -31.6420   51.2180 H   0  0  0  0  0  0  0  0  0  0  0  0
  -15.9160  -31.3030   55.8490 C   0  0  0  0  0  0  0  0  0  0  0  0
  -16.8070  -31.9830   56.8450 C   0  0  0  0  0  0  0  0  0  0  0  0
  -16.3050  -32.2710   58.2280 C   0  0  0  0  0  0  0  0  0  0  0  0
  -14.9090  -31.8800   58.6160 C   0  0  0  0  0  0  0  0  0  0  0  0
  -14.0170  -31.2000   57.6200 C   0  0  0  0  0  0  0  0  0  0  0  0
  -14.5200  -30.9120   56.2360 N   0  0  0  0  0  0  0  0  0  0  0  0
  -17.7680  -32.2520   56.5780 H   0  0  0  0  0  0  0  0  0  0  0  0
  -16.9190  -32.7380   58.9140 H   0  0  0  0  0  0  0  0  0  0  0  0
  -14.5630  -32.0770   59.5670 H   0  0  0  0  0  0  0  0  0  0  0  0
  -13.0570  -30.9310   57.8860 H   0  0  0  0  0  0  0  0  0  0  0  0
  1 14  1  0
  1  6  1  0
  2  1  2  0
  3  2  1  0
  3  4  2  0
  4  5  1  0
  5  6  2  0
  5  9  1  0
  7  2  1  0
  8  4  1  0
 11 10  1  0
 11 16  1  0
 12 11  2  0
 13 12  1  0
 13 14  2  0
 14 15  1  0
 15 16  2  0
 15 19  1  0
 16 20  1  0
 17 12  1  0
 18 13  1  0
 21 25  1  0
 21  3  1  0
 22 21  2  0
 23 22  1  0
 23 24  1  0
 24 25  2  0
 25 28  1  0
 26 22  1  0
 27 23  1  0
 28 33  2  0
 28 29  1  0
 29 30  2  0
 30 31  1  0
 30 35  1  0
 31 36  1  0
 32 37  1  0
 32 31  2  0
 33 32  1  0
 34 29  1  0
M  END
>  <minimizedAffinity>  (182) 
-8.76947308

$$$$

     RDKit          3D

 29 31  0  0  0  0  0  0  0  0999 V2000
  -15.6540  -29.2560   55.6590 C   0  0  0  0  0  0  0  0  0  0  0  0
  -15.7810  -27.7630   55.7350 C   0  0  0  0  0  0  0  0  0  0  0  0
  -17.1380  -27.1270   55.7890 C   0  0  0  0  0  0  0  0  0  0  0  0
  -18.3690  -27.9840   55.7670 C   0  0  0  0  0  0  0  0  0  0  0  0
  -18.2430  -29.4770   55.6900 C   0  0  0  0  0  0  0  0  0  0  0  0
  -16.8850  -30.1130   55.6360 C   0  0  0  0  0  0  0  0  0  0  0  0
  -14.9340  -27.1740   55.7510 H   0  0  0  0  0  0  0  0  0  0  0  0
  -17.2250  -26.1000   55.8420 H   0  0  0  0  0  0  0  0  0  0  0  0
  -19.0900  -30.0670   55.6750 H   0  0  0  0  0  0  0  0  0  0  0  0
  -16.7990  -31.1400   55.5840 H   0  0  0  0  0  0  0  0  0  0  0  0
  -19.7270  -27.3480   55.8210 C   0  0  0  0  0  0  0  0  0  0  0  0
  -20.0100  -25.8970   56.0710 C   0  0  0  0  0  0  0  0  0  0  0  0
  -21.4980  -25.7040   56.0390 C   0  0  0  0  0  0  0  0  0  0  0  0
  -22.3560  -24.4870   56.2200 C   0  0  0  0  0  0  0  0  0  0  0  0
  -23.8490  -24.6020   56.1320 N   0  0  0  0  0  0  0  0  0  0  0  0
  -24.4840  -25.9340   55.8620 C   0  0  0  0  0  0  0  0  0  0  0  0
  -23.6260  -27.1510   55.6810 N   0  0  0  0  0  0  0  0  0  0  0  0
  -22.1330  -27.0360   55.7690 C   0  0  0  0  0  0  0  0  0  0  0  0
  -21.0380  -28.0530   55.6340 O   0  0  0  0  0  0  0  0  0  0  0  0
  -19.3060  -25.1610   56.2360 H   0  0  0  0  0  0  0  0  0  0  0  0
  -25.5110  -26.0130   55.8020 H   0  0  0  0  0  0  0  0  0  0  0  0
  -21.7210  -23.1550   56.4900 N   0  0  0  0  0  0  0  0  0  0  0  0
  -20.7410  -23.0800   56.5480 H   0  0  0  0  0  0  0  0  0  0  0  0
  -22.2850  -22.3560   56.6100 H   0  0  0  0  0  0  0  0  0  0  0  0
  -14.2970  -29.8920   55.6050 O   0  0  0  0  0  0  0  0  0  0  0  0
  -13.9930  -31.0840   56.4630 C   0  0  0  0  0  0  0  0  0  0  0  0
  -14.7440  -31.4810   57.1140 H   0  0  0  0  0  0  0  0  0  0  0  0
  -13.0240  -31.5380   56.4240 H   0  0  0  0  0  0  0  0  0  0  0  0
  -13.7760  -31.9350   57.0750 H   0  0  0  0  0  0  0  0  0  0  0  0
  1  2  1  0
  2  7  1  0
  2  3  2  0
  3  8  1  0
  4  3  1  0
  4 11  1  0
  5  4  2  0
  6  1  2  0
  6  5  1  0
  9  5  1  0
 10  6  1  0
 11 12  2  0
 12 20  1  0
 13 12  1  0
 13 14  2  0
 14 22  1  0
 15 14  1  0
 16 15  2  0
 17 18  2  0
 17 16  1  0
 18 13  1  0
 19 18  1  0
 19 11  1  0
 21 16  1  0
 22 23  1  0
 22 24  1  0
 25  1  1  0
 25 26  1  0
 26 29  1  0
 26 27  1  0
 28 26  1  0
M  END
>  <minimizedAffinity>  (183) 
-7.59776974

$$$$

     RDKit          3D

 54 57  0  0  0  0  0  0  0  0999 V2000
  -22.8370  -25.9460   55.8970 C   0  0  0  0  0  0  0  0  0  0  0  0
  -23.1660  -24.5050   56.1540 C   0  0  0  0  0  0  0  0  0  0  0  0
  -22.0650  -23.5160   56.3970 N   0  0  0  0  0  0  0  0  0  0  0  0
  -20.6350  -23.9680   56.3830 C   0  0  0  0  0  0  0  0  0  0  0  0
  -20.3060  -25.4080   56.1260 N   0  0  0  0  0  0  0  0  0  0  0  0
  -21.4070  -26.3970   55.8830 C   0  0  0  0  0  0  0  0  0  0  0  0
  -21.0770  -27.8380   55.6260 N   0  0  0  0  0  0  0  0  0  0  0  0
  -24.1500  -24.1950   56.1630 H   0  0  0  0  0  0  0  0  0  0  0  0
  -19.8770  -23.2870   56.5510 H   0  0  0  0  0  0  0  0  0  0  0  0
  -21.8000  -28.4870   55.4660 H   0  0  0  0  0  0  0  0  0  0  0  0
  -19.6470  -28.2890   55.6120 C   0  0  0  0  0  0  0  0  0  0  0  0
  -19.3210  -29.7510   55.7020 C   0  0  0  0  0  0  0  0  0  0  0  0
  -17.8900  -30.2020   55.6880 C   0  0  0  0  0  0  0  0  0  0  0  0
  -16.7860  -29.1920   55.5840 C   0  0  0  0  0  0  0  0  0  0  0  0
  -17.1120  -27.7310   55.4940 C   0  0  0  0  0  0  0  0  0  0  0  0
  -16.0080  -26.7210   55.3890 Cl  0  0  0  0  0  0  0  0  0  0  0  0
  -18.5430  -27.2800   55.5070 C   0  0  0  0  0  0  0  0  0  0  0  0
  -20.0810  -30.4460   55.7740 H   0  0  0  0  0  0  0  0  0  0  0  0
  -17.6660  -31.2080   55.7510 H   0  0  0  0  0  0  0  0  0  0  0  0
  -18.7670  -26.2740   55.4450 H   0  0  0  0  0  0  0  0  0  0  0  0
  -15.3560  -29.6440   55.5700 O   0  0  0  0  0  0  0  0  0  0  0  0
  -14.9980  -31.0170   56.0570 C   0  0  0  0  0  0  0  0  0  0  0  0
  -15.4020  -31.8800   55.5690 H   0  0  0  0  0  0  0  0  0  0  0  0
  -14.7430  -31.9970   56.4040 H   0  0  0  0  0  0  0  0  0  0  0  0
  -14.0740  -31.1810   57.2280 C   0  0  0  0  0  0  0  0  0  0  0  0
  -14.5900  -30.9870   58.6230 C   0  0  0  0  0  0  0  0  0  0  0  0
  -13.6670  -31.1510   59.7930 C   0  0  0  0  0  0  0  0  0  0  0  0
  -12.2270  -31.5080   59.5690 C   0  0  0  0  0  0  0  0  0  0  0  0
  -11.7110  -31.7010   58.1740 C   0  0  0  0  0  0  0  0  0  0  0  0
  -10.2720  -32.0580   57.9490 F   0  0  0  0  0  0  0  0  0  0  0  0
  -12.6350  -31.5380   57.0030 C   0  0  0  0  0  0  0  0  0  0  0  0
  -15.5810  -30.7420   58.7770 H   0  0  0  0  0  0  0  0  0  0  0  0
  -14.0220  -31.0180   60.7530 H   0  0  0  0  0  0  0  0  0  0  0  0
  -11.5920  -31.6210   60.3740 H   0  0  0  0  0  0  0  0  0  0  0  0
  -12.2800  -31.6710   56.0430 H   0  0  0  0  0  0  0  0  0  0  0  0
  -25.0390  -27.9240   55.4100 C   0  0  0  0  0  0  0  0  0  0  0  0
  -23.9380  -26.9350   55.6530 C   0  0  0  0  0  0  0  0  0  0  0  0
  -28.3190  -29.5950   53.9260 C   0  0  0  0  0  0  0  0  0  0  0  0
  -28.3420  -30.8910   54.6800 C   0  0  0  0  0  0  0  0  0  0  0  0
  -27.2650  -31.1990   55.6770 C   0  0  0  0  0  0  0  0  0  0  0  0
  -26.1640  -30.2090   55.9200 C   0  0  0  0  0  0  0  0  0  0  0  0
  -26.1400  -28.9130   55.1660 C   0  0  0  0  0  0  0  0  0  0  0  0
  -27.2180  -28.6060   54.1690 N   0  0  0  0  0  0  0  0  0  0  0  0
  -29.1000  -31.5720   54.5120 H   0  0  0  0  0  0  0  0  0  0  0  0
  -27.2810  -32.0910   56.1960 H   0  0  0  0  0  0  0  0  0  0  0  0
  -25.4230  -30.4210   56.6070 H   0  0  0  0  0  0  0  0  0  0  0  0
  -30.4240  -28.2390   53.2340 C   0  0  0  0  0  0  0  0  0  0  0  0
  -30.3750  -27.4980   54.5380 O   0  0  0  0  0  0  0  0  0  0  0  0
  -29.3960  -29.2870   52.9280 N   0  0  0  0  0  0  0  0  0  0  0  0
  -29.4280  -29.7740   52.0730 H   0  0  0  0  0  0  0  0  0  0  0  0
  -31.5020  -27.9320   52.2370 C   0  0  0  0  0  0  0  0  0  0  0  0
  -32.2360  -27.1840   52.4550 H   0  0  0  0  0  0  0  0  0  0  0  0
  -31.5370  -28.4600   51.3070 H   0  0  0  0  0  0  0  0  0  0  0  0
  -32.2700  -27.7120   51.5250 H   0  0  0  0  0  0  0  0  0  0  0  0
  1  2  2  0
  2  8  1  0
  2  3  1  0
  4  3  2  0
  4  9  1  0
  5  4  1  0
  6  1  1  0
  6  5  2  0
  7  6  1  0
 10  7  1  0
 11  7  1  0
 11 12  1  0
 12 18  1  0
 13 12  2  0
 13 19  1  0
 14 13  1  0
 15 17  1  0
 15 14  2  0
 16 15  1  0
 17 11  2  0
 20 17  1  0
 21 14  1  0
 21 22  1  0
 22 24  1  0
 22 25  1  0
 23 22  1  0
 25 26  1  0
 26 32  1  0
 26 27  2  0
 27 33  1  0
 28 27  1  0
 28 34  1  0
 29 28  2  0
 30 29  1  0
 31 25  2  0
 31 29  1  0
 35 31  1  0
 36 37  3  0
 37  1  1  0
 38 43  2  0
 38 39  1  0
 39 40  2  0
 40 41  1  0
 40 45  1  0
 41 46  1  0
 42 36  1  0
 42 41  2  0
 43 42  1  0
 44 39  1  0
 47 48  2  0
 49 47  1  0
 49 38  1  0
 50 49  1  0
 51 52  1  0
 51 47  1  0
 53 51  1  0
 54 51  1  0
M  END
>  <minimizedAffinity>  (184) 
-10.1397247

$$$$

     RDKit          3D

 35 37  0  0  0  0  0  0  0  0999 V2000
  -19.9760  -25.0500   56.3350 N   0  0  0  0  0  0  0  0  0  0  0  0
  -21.4740  -25.0940   56.2640 C   0  0  0  0  0  0  0  0  0  0  0  0
  -22.4050  -23.9580   56.5700 N   0  0  0  0  0  0  0  0  0  0  0  0
  -23.8100  -24.4440   56.3700 C   0  0  0  0  0  0  0  0  0  0  0  0
  -23.7470  -25.8800   55.9410 C   0  0  0  0  0  0  0  0  0  0  0  0
  -22.3030  -26.2810   55.8750 O   0  0  0  0  0  0  0  0  0  0  0  0
  -19.5200  -24.2190   56.6030 H   0  0  0  0  0  0  0  0  0  0  0  0
  -24.6690  -23.8890   56.5040 H   0  0  0  0  0  0  0  0  0  0  0  0
  -24.9220  -26.7600   55.6310 C   0  0  0  0  0  0  0  0  0  0  0  0
  -24.7020  -28.1490   55.1100 C   0  0  0  0  0  0  0  0  0  0  0  0
  -25.8770  -29.0290   54.8000 C   0  0  0  0  0  0  0  0  0  0  0  0
  -27.2710  -28.5190   55.0110 C   0  0  0  0  0  0  0  0  0  0  0  0
  -27.4920  -27.1300   55.5330 C   0  0  0  0  0  0  0  0  0  0  0  0
  -26.3160  -26.2510   55.8420 C   0  0  0  0  0  0  0  0  0  0  0  0
  -23.7420  -28.4990   54.9640 H   0  0  0  0  0  0  0  0  0  0  0  0
  -25.7250  -29.9840   54.4410 H   0  0  0  0  0  0  0  0  0  0  0  0
  -28.0800  -29.1250   54.7980 H   0  0  0  0  0  0  0  0  0  0  0  0
  -28.4520  -26.7800   55.6780 H   0  0  0  0  0  0  0  0  0  0  0  0
  -26.4690  -25.2950   56.2010 H   0  0  0  0  0  0  0  0  0  0  0  0
  -17.5670  -28.7140   55.3260 C   0  0  0  0  0  0  0  0  0  0  0  0
  -18.9860  -28.8540   55.7920 C   0  0  0  0  0  0  0  0  0  0  0  0
  -19.7890  -27.6330   56.1280 C   0  0  0  0  0  0  0  0  0  0  0  0
  -19.1730  -26.2710   55.9990 C   0  0  0  0  0  0  0  0  0  0  0  0
  -17.7540  -26.1310   55.5330 C   0  0  0  0  0  0  0  0  0  0  0  0
  -16.9510  -27.3520   55.1970 C   0  0  0  0  0  0  0  0  0  0  0  0
  -19.4090  -29.7910   55.8810 H   0  0  0  0  0  0  0  0  0  0  0  0
  -20.7650  -27.7290   56.4490 H   0  0  0  0  0  0  0  0  0  0  0  0
  -17.3300  -25.1940   55.4440 H   0  0  0  0  0  0  0  0  0  0  0  0
  -15.9740  -27.2550   54.8770 H   0  0  0  0  0  0  0  0  0  0  0  0
  -16.7630  -29.9350   54.9900 S   0  0  2  0  0  0  0  0  0  0  0  0
  -15.5000  -29.1920   55.3100 O   0  0  0  0  0  0  0  0  0  0  0  0
  -18.0270  -30.6780   54.6700 O   0  0  0  0  0  0  0  0  0  0  0  0
  -15.9600  -31.1560   54.6540 N   0  0  0  0  0  0  0  0  0  0  0  0
  -14.9430  -31.1340   54.7280 H   0  0  0  0  0  0  0  0  0  0  0  0
  -16.4310  -32.0090   54.3510 H   0  0  0  0  0  0  0  0  0  0  0  0
  1  7  1  0
  2  1  1  0
  2  3  2  0
  4  8  1  0
  4  3  1  0
  5  4  2  0
  6  5  1  0
  6  2  1  0
  9 14  1  0
  9  5  1  0
 10  9  2  0
 11 12  2  0
 11 10  1  0
 12 13  1  0
 13 18  1  0
 13 14  2  0
 14 19  1  0
 15 10  1  0
 16 11  1  0
 17 12  1  0
 20 21  1  0
 21 26  1  0
 21 22  2  0
 22 27  1  0
 23 22  1  0
 23  1  1  0
 24 23  2  0
 25 20  2  0
 25 24  1  0
 28 24  1  0
 29 25  1  0
 30 31  2  0
 30 20  1  0
 32 30  2  0
 33 34  1  0
 33 30  1  0
 35 33  1  0
M  END
>  <minimizedAffinity>  (185) 
-7.93003178

$$$$

     RDKit          3D

 51 52  0  0  0  0  0  0  0  0999 V2000
  -20.3940  -26.4880   55.8750 C   0  0  0  0  0  0  0  0  0  0  0  0
  -20.1430  -27.9660   55.8510 C   0  0  0  0  0  0  0  0  0  0  0  0
  -18.6690  -28.1820   55.6760 C   0  0  0  0  0  3  0  0  0  0  0  0
  -18.0100  -26.8380   55.5930 C   0  0  0  0  0  0  0  0  0  0  0  0
  -19.0770  -25.7900   55.7160 S   0  0  0  0  0  0  0  0  0  0  0  0
  -20.8580  -28.7040   55.9390 H   0  0  0  0  0  0  0  0  0  0  0  0
  -25.9630  -27.1810   55.4900 C   0  0  0  0  0  0  0  0  0  0  0  0
  -25.5750  -25.7970   55.9170 C   0  0  0  0  0  0  0  0  0  0  0  0
  -24.1270  -25.4390   56.0710 C   0  0  0  0  0  0  0  0  0  0  0  0
  -23.4460  -24.1640   56.4750 N   0  0  0  0  0  0  0  0  0  0  0  0
  -21.9640  -24.4020   56.4510 C   0  0  0  0  0  0  0  0  0  0  0  0
  -21.7310  -25.8230   56.0320 N   0  0  0  0  0  0  0  0  0  0  0  0
  -23.0670  -26.4630   55.7970 C   0  0  0  0  0  0  0  0  0  0  0  0
  -23.4550  -27.8480   55.3700 C   0  0  0  0  0  0  0  0  0  0  0  0
  -24.9030  -28.2070   55.2160 C   0  0  0  0  0  0  0  0  0  0  0  0
  -26.3050  -25.0910   56.1060 H   0  0  0  0  0  0  0  0  0  0  0  0
  -21.2350  -23.7100   56.6820 H   0  0  0  0  0  0  0  0  0  0  0  0
  -22.7260  -28.5530   55.1820 H   0  0  0  0  0  0  0  0  0  0  0  0
  -27.4120  -27.5410   55.3360 O   0  0  0  0  0  0  0  0  0  0  0  0
  -28.1590  -28.1490   56.4850 C   0  0  0  0  0  0  0  0  0  0  0  0
  -27.6600  -28.3280   57.4140 H   0  0  0  0  0  0  0  0  0  0  0  0
  -29.1930  -28.4050   56.3750 H   0  0  0  0  0  0  0  0  0  0  0  0
  -28.6930  -28.5840   57.3050 H   0  0  0  0  0  0  0  0  0  0  0  0
  -25.2920  -29.5910   54.7880 O   0  0  0  0  0  0  0  0  0  0  0  0
  -24.5110  -30.2910   53.7160 C   0  0  0  0  0  0  0  0  0  0  0  0
  -24.7880  -31.2790   53.4100 H   0  0  0  0  0  0  0  0  0  0  0  0
  -23.6770  -29.8030   53.2550 H   0  0  0  0  0  0  0  0  0  0  0  0
  -23.9540  -30.7910   52.9500 H   0  0  0  0  0  0  0  0  0  0  0  0
  -16.5420  -26.5850   55.4170 C   0  0  0  0  0  0  0  0  0  0  0  0
  -15.5650  -27.7160   55.5450 N   0  0  0  0  0  0  0  0  0  0  0  0
  -16.0500  -25.2000   55.1140 O   0  0  0  0  0  0  0  0  0  0  0  0
  -15.8870  -28.6250   55.7440 H   0  0  0  0  0  0  0  0  0  0  0  0
  -14.6010  -27.5500   55.4290 H   0  0  0  0  0  0  0  0  0  0  0  0
  -17.9750  -29.5100   55.5980 O   0  0  0  0  0 15  0  0  0  0  0  0
  -18.0440  -30.3180   54.3370 C   0  0  0  0  0  3  0  0  0  0  0  0
  -17.5140  -29.3880   54.3490 H   0  0  0  0  0  0  0  0  0  0  0  0
  -18.7860  -31.6210   54.3190 C   0  0  0  0  0  0  0  0  0  0  0  0
  -18.0940  -32.8830   54.7460 C   0  0  0  0  0  0  0  0  0  0  0  0
  -18.8360  -34.1870   54.7280 C   0  0  0  0  0  0  0  0  0  0  0  0
  -20.2680  -34.2290   54.2830 C   0  0  0  0  0  0  0  0  0  0  0  0
  -20.9590  -32.9680   53.8560 C   0  0  0  0  0  0  0  0  0  0  0  0
  -20.2170  -31.6650   53.8740 C   0  0  0  0  0  0  0  0  0  0  0  0
  -20.9080  -30.4030   53.4470 Cl  0  0  0  0  0  0  0  0  0  0  0  0
  -17.1100  -32.8540   55.0520 H   0  0  0  0  0  0  0  0  0  0  0  0
  -18.3610  -35.0550   55.0220 H   0  0  0  0  0  0  0  0  0  0  0  0
  -20.7780  -35.1270   54.2710 H   0  0  0  0  0  0  0  0  0  0  0  0
  -21.9430  -32.9970   53.5500 H   0  0  0  0  0  0  0  0  0  0  0  0
  -17.3690  -29.8220   53.0920 C   0  0  0  0  0  0  0  0  0  0  0  0
  -16.8400  -28.8930   53.1030 H   0  0  0  0  0  0  0  0  0  0  0  0
  -17.4180  -30.3980   52.1910 H   0  0  0  0  0  0  0  0  0  0  0  0
  -16.8890  -29.4690   52.2030 H   0  0  0  0  0  0  0  0  0  0  0  0
  1 12  1  0
  2  1  2  0
  2  6  1  0
  3  2  1  0
  4  3  2  0
  4  5  1  0
  5  1  1  0
  7  8  1  0
  8  9  2  0
  8 16  1  0
  9 10  1  0
 11 10  2  0
 11 17  1  0
 12 11  1  0
 13 12  1  0
 13  9  1  0
 14 13  2  0
 15 14  1  0
 15  7  2  0
 18 14  1  0
 19  7  1  0
 19 20  1  0
 20 23  1  0
 20 21  1  0
 22 20  1  0
 24 15  1  0
 25 24  1  0
 26 25  1  0
 27 25  1  0
 28 25  1  0
 29 30  1  0
 29  4  1  0
 30 32  1  0
 31 29  2  0
 33 30  1  0
 35 36  1  0
 37 35  1  0
 37 38  1  0
 38 44  1  0
 39 38  2  0
 39 45  1  0
 40 39  1  0
 41 42  1  0
 41 40  2  0
 42 37  2  0
 43 42  1  0
 46 40  1  0
 47 41  1  0
 48 49  1  0
 48 35  1  0
 50 48  1  0
 51 48  1  0
M  END
>  <minimizedAffinity>  (186) 
-8.9805727

$$$$

     RDKit          3D

 50 53  0  0  0  0  0  0  0  0999 V2000
  -20.8090  -27.5790   55.4230 C   0  0  0  0  0  0  0  0  0  0  0  0
  -20.4540  -28.6780   56.3810 C   0  0  0  0  0  0  0  0  0  0  0  0
  -19.3090  -29.5970   56.0760 C   0  0  0  0  0  0  0  0  0  0  0  0
  -18.5190  -29.4190   54.8130 C   0  0  0  0  0  0  0  0  0  0  0  0
  -18.8750  -28.3210   53.8550 C   0  0  0  0  0  0  0  0  0  0  0  0
  -20.0200  -27.4010   54.1600 C   0  0  0  0  0  0  0  0  0  0  0  0
  -20.9970  -28.8010   57.2500 H   0  0  0  0  0  0  0  0  0  0  0  0
  -19.0640  -30.3530   56.7350 H   0  0  0  0  0  0  0  0  0  0  0  0
  -18.3320  -28.1970   52.9860 H   0  0  0  0  0  0  0  0  0  0  0  0
  -20.2640  -26.6450   53.5010 H   0  0  0  0  0  0  0  0  0  0  0  0
  -24.5100  -26.2020   55.8180 C   0  0  0  0  0  0  0  0  0  0  0  0
  -24.2440  -24.8200   56.3380 C   0  0  0  0  0  0  0  0  0  0  0  0
  -22.8340  -24.3590   56.5540 C   0  0  0  0  0  0  0  0  0  0  0  0
  -21.6890  -25.2780   56.2490 C   0  0  0  0  0  0  0  0  0  0  0  0
  -21.9540  -26.6600   55.7280 C   0  0  0  0  0  0  0  0  0  0  0  0
  -23.3650  -27.1210   55.5130 C   0  0  0  0  0  0  0  0  0  0  0  0
  -25.0320  -24.1880   56.5480 H   0  0  0  0  0  0  0  0  0  0  0  0
  -22.6510  -23.4080   56.9120 H   0  0  0  0  0  0  0  0  0  0  0  0
  -23.5480  -28.0720   55.1540 H   0  0  0  0  0  0  0  0  0  0  0  0
  -27.8380  -27.9880   54.9240 C   0  0  0  0  0  0  0  0  0  0  0  0
  -28.3460  -26.7590   55.6170 N   0  0  0  0  0  0  0  0  0  0  0  0
  -27.1620  -25.9400   56.0360 N   0  0  0  0  0  0  0  0  0  0  0  0
  -25.9210  -26.6630   55.6020 C   0  0  0  0  0  0  0  0  0  0  0  0
  -26.3390  -27.9290   54.9150 O   0  0  0  0  0  0  0  0  0  0  0  0
  -28.6810  -29.0850   54.3420 C   0  0  0  0  0  0  0  0  0  0  0  0
  -28.2140  -29.9230   53.8670 H   0  0  0  0  0  0  0  0  0  0  0  0
  -29.7470  -29.0300   54.4030 H   0  0  0  0  0  0  0  0  0  0  0  0
  -29.2820  -29.8670   53.9270 H   0  0  0  0  0  0  0  0  0  0  0  0
  -20.2780  -24.8170   56.4640 C   0  0  0  0  0  0  0  0  0  0  0  0
  -20.0880  -23.8310   56.8360 H   0  0  0  0  0  0  0  0  0  0  0  0
  -19.4610  -25.4730   56.2470 H   0  0  0  0  0  0  0  0  0  0  0  0
  -19.2710  -24.4870   56.6180 H   0  0  0  0  0  0  0  0  0  0  0  0
  -17.3740  -30.3380   54.5080 C   0  0  0  0  0  0  0  0  0  0  0  0
  -16.7390  -30.3210   53.1490 O   0  0  0  0  0  0  0  0  0  0  0  0
  -16.8640  -31.2760   55.5620 N   0  0  0  0  0  0  0  0  0  0  0  0
  -17.2810  -31.2880   56.4540 H   0  0  0  0  0  0  0  0  0  0  0  0
  -15.7190  -32.1960   55.2560 C   0  0  0  0  0  0  0  0  0  0  0  0
  -15.7570  -32.8300   54.3950 H   0  0  0  0  0  0  0  0  0  0  0  0
  -14.9020  -32.8520   55.0390 H   0  0  0  0  0  0  0  0  0  0  0  0
  -14.5210  -32.2270   56.1590 C   0  0  0  0  0  0  0  0  0  0  0  0
  -13.3040  -31.4210   55.8180 C   0  0  0  0  0  0  0  0  0  0  0  0
  -12.1060  -31.4520   56.7200 C   0  0  0  0  0  0  0  0  0  0  0  0
  -12.1260  -32.2900   57.9640 C   0  0  0  0  0  0  0  0  0  0  0  0
  -10.9280  -32.3220   58.8670 Cl  0  0  0  0  0  0  0  0  0  0  0  0
  -13.3440  -33.0970   58.3050 C   0  0  0  0  0  0  0  0  0  0  0  0
  -14.5410  -33.0660   57.4030 C   0  0  0  0  0  0  0  0  0  0  0  0
  -13.2900  -30.8440   54.9620 H   0  0  0  0  0  0  0  0  0  0  0  0
  -11.2680  -30.8970   56.4850 H   0  0  0  0  0  0  0  0  0  0  0  0
  -13.3580  -33.6740   59.1610 H   0  0  0  0  0  0  0  0  0  0  0  0
  -15.3790  -33.6210   57.6380 H   0  0  0  0  0  0  0  0  0  0  0  0
  1 15  1  0
  1  2  1  0
  2  7  1  0
  3  2  2  0
  3  8  1  0
  4  3  1  0
  5  6  1  0
  5  4  2  0
  6  1  2  0
  9  5  1  0
 10  6  1  0
 11 12  1  0
 12 17  1  0
 12 13  2  0
 13 18  1  0
 14 29  1  0
 14 13  1  0
 15 14  2  0
 16 15  1  0
 16 11  2  0
 19 16  1  0
 20 21  2  0
 21 22  1  0
 23 11  1  0
 23 22  2  0
 24 20  1  0
 24 23  1  0
 25 27  1  0
 25 20  1  0
 26 25  1  0
 28 25  1  0
 29 32  1  0
 29 30  1  0
 31 29  1  0
 33  4  1  0
 33 35  1  0
 34 33  2  0
 35 36  1  0
 37 35  1  0
 37 40  1  0
 38 37  1  0
 39 37  1  0
 40 46  1  0
 41 40  2  0
 41 42  1  0
 42 43  2  0
 43 45  1  0
 43 44  1  0
 45 49  1  0
 46 50  1  0
 46 45  2  0
 47 41  1  0
 48 42  1  0
M  END
>  <minimizedAffinity>  (187) 
-10.7224169

$$$$

     RDKit          3D

 43 43  0  0  0  0  0  0  0  0999 V2000
  -25.6960  -32.7320   52.7940 C   0  0  0  0  0  0  0  0  0  0  0  0
  -24.2650  -33.0840   52.5120 C   0  0  0  0  0  0  0  0  0  0  0  0
  -23.1720  -32.1210   52.8680 C   0  0  0  0  0  0  0  0  0  0  0  0
  -23.5090  -30.8060   53.5060 C   0  0  0  0  0  0  0  0  0  0  0  0
  -22.6520  -29.6640   53.9650 C   0  0  0  0  0  0  0  0  0  0  0  0
  -23.5530  -28.6060   54.5300 C   0  0  0  0  0  0  0  0  0  0  0  0
  -24.9670  -29.0940   54.4200 N   0  0  0  0  0  0  0  0  0  0  0  0
  -24.9400  -30.4540   53.7880 N   0  0  0  0  0  0  0  0  0  0  0  0
  -26.0330  -31.4170   53.4310 C   0  0  0  0  0  0  0  0  0  0  0  0
  -24.0330  -33.9890   52.0730 H   0  0  0  0  0  0  0  0  0  0  0  0
  -22.1880  -32.3630   52.6740 H   0  0  0  0  0  0  0  0  0  0  0  0
  -27.0180  -31.1750   53.6250 H   0  0  0  0  0  0  0  0  0  0  0  0
  -23.1170  -27.2900   55.1040 C   0  0  0  0  0  0  0  0  0  0  0  0
  -23.9810  -26.0750   54.9370 C   0  0  0  0  0  0  0  0  0  0  0  0
  -23.5440  -24.7600   55.5110 C   0  0  0  0  0  0  0  0  0  0  0  0
  -22.2440  -24.6590   56.2510 C   0  0  0  0  0  0  0  0  0  0  0  0
  -21.8070  -23.3440   56.8250 F   0  0  0  0  0  0  0  0  0  0  0  0
  -21.3800  -25.8740   56.4180 C   0  0  0  0  0  0  0  0  0  0  0  0
  -21.8160  -27.1900   55.8440 C   0  0  0  0  0  0  0  0  0  0  0  0
  -24.8760  -26.1450   54.4270 H   0  0  0  0  0  0  0  0  0  0  0  0
  -24.1390  -23.9240   55.3960 H   0  0  0  0  0  0  0  0  0  0  0  0
  -20.4850  -25.8050   56.9270 H   0  0  0  0  0  0  0  0  0  0  0  0
  -21.2220  -28.0250   55.9590 H   0  0  0  0  0  0  0  0  0  0  0  0
  -21.1560  -29.5920   53.8740 C   0  0  0  0  0  0  0  0  0  0  0  0
  -20.5080  -28.9430   52.6880 C   0  0  0  0  0  0  0  0  0  0  0  0
  -19.0120  -28.8710   52.5970 C   0  0  0  0  0  3  0  0  0  0  0  0
  -18.1660  -29.4490   53.6930 N   0  0  0  0  0  0  0  0  0  0  0  0
  -18.8140  -30.0980   54.8790 C   0  0  0  0  0  0  0  0  0  0  0  0
  -17.9680  -30.6750   55.9750 N   0  0  0  0  0  2  0  0  0  0  0  0
  -20.3100  -30.1690   54.9700 N   0  0  0  0  0  0  0  0  0  0  0  0
  -21.0890  -28.5460   51.9340 H   0  0  0  0  0  0  0  0  0  0  0  0
  -18.5650  -28.4240   51.7810 H   0  0  0  0  0  0  0  0  0  0  0  0
  -18.3940  -31.1010   56.7530 H   0  0  0  0  0  0  0  0  0  0  0  0
  -16.4720  -30.6030   55.8840 C   0  0  0  0  0 15  0  0  0  0  0  0
  -15.2010  -29.8180   56.0020 C   0  0  0  0  0  3  0  0  0  0  0  0
  -15.1540  -31.2650   55.6100 C   0  0  0  0  0  2  0  0  0  0  0  0
  -15.4060  -30.5520   55.8190 H   0  0  0  0  0  0  0  0  0  0  0  0
  -14.6950  -28.8980   56.2110 H   0  0  0  0  0  0  0  0  0  0  0  0
  -14.1610  -30.0360   55.8670 H   0  0  0  0  0  0  0  0  0  0  0  0
  -14.5930  -32.1330   55.3350 H   0  0  0  0  0  0  0  0  0  0  0  0
  -15.8860  -32.0310   55.4570 H   0  0  0  0  0  0  0  0  0  0  0  0
  -27.8830  -34.6590   52.0820 N   0  0  0  0  0  1  0  0  0  0  0  0
  -26.7890  -33.6950   52.4380 C   0  0  0  0  0  2  0  0  0  0  0  0
  1  9  2  0
  2  1  1  0
  2  3  2  0
  3  4  1  0
  4  8  1  0
  4  5  2  0
  5  6  1  0
  6 13  1  0
  7  6  2  0
  8  7  1  0
  9 12  1  0
  9  8  1  0
 10  2  1  0
 11  3  1  0
 13 19  1  0
 14 13  2  0
 14 15  1  0
 15 16  2  0
 16 18  1  0
 16 17  1  0
 18 22  1  0
 19 23  1  0
 19 18  2  0
 20 14  1  0
 21 15  1  0
 24  5  1  0
 24 30  1  0
 25 24  2  0
 26 25  1  0
 26 27  1  0
 27 28  2  0
 28 30  2  0
 28 29  1  0
 29 33  1  0
 31 25  1  0
 32 26  1  0
 35 38  1  0
 37 35  1  0
 39 35  1  0
 40 36  1  0
 41 36  1  0
 42 43  1  0
 43  1  1  0
M  END
>  <minimizedAffinity>  (188) 
-8.1096611

$$$$

     RDKit          3D

 53 49  0  0  0  0  0  0  0  0999 V2000
  -21.5690  -25.3670   56.2740 C   0  0  0  0  0  0  0  0  0  0  0  0
  -22.7110  -24.4460   56.5900 C   0  0  0  0  0  0  0  0  0  0  0  0
  -24.1200  -24.8750   56.3050 C   0  0  0  0  0  0  0  0  0  0  0  0
  -24.3880  -26.2230   55.7060 C   0  0  0  0  0  0  0  0  0  0  0  0
  -23.2460  -27.1440   55.3900 C   0  0  0  0  0  0  0  0  0  0  0  0
  -21.8370  -26.7150   55.6750 C   0  0  0  0  0  0  0  0  0  0  0  0
  -22.5270  -23.5180   57.0020 H   0  0  0  0  0  0  0  0  0  0  0  0
  -24.9060  -24.2410   56.5220 H   0  0  0  0  0  0  0  0  0  0  0  0
  -23.4300  -28.0720   54.9780 H   0  0  0  0  0  0  0  0  0  0  0  0
  -20.6950  -27.6360   55.3600 C   0  0  0  0  0  0  0  0  0  0  0  0
  -20.3140  -28.7160   56.3270 C   0  0  0  0  0  0  0  0  0  0  0  0
  -19.1720  -29.6370   56.0120 C   0  0  0  0  0  0  0  0  0  0  0  0
  -18.4110  -29.4760   54.7290 C   0  0  0  0  0  0  0  0  0  0  0  0
  -18.7930  -28.3950   53.7620 C   0  0  0  0  0  0  0  0  0  0  0  0
  -19.9340  -27.4750   54.0770 C   0  0  0  0  0  0  0  0  0  0  0  0
  -20.8370  -28.8270   57.2100 H   0  0  0  0  0  0  0  0  0  0  0  0
  -18.9100  -30.3800   56.6780 H   0  0  0  0  0  0  0  0  0  0  0  0
  -18.2690  -28.2850   52.8790 H   0  0  0  0  0  0  0  0  0  0  0  0
  -20.1970  -26.7310   53.4110 H   0  0  0  0  0  0  0  0  0  0  0  0
  -17.2700  -30.3960   54.4140 C   0  0  0  0  0  0  0  0  0  0  0  0
  -16.9150  -30.6900   52.9860 O   0  0  0  0  0  0  0  0  0  0  0  0
  -16.4820  -31.0230   55.5260 N   0  0  0  0  0  4  0  0  0  0  0  0
  -16.7150  -30.8310   56.4630 H   0  0  0  0  0  0  0  0  0  0  0  0
  -15.3410  -31.9430   55.2110 C   0  0  0  0  0  0  0  0  0  0  0  0
  -15.4990  -32.8000   54.5900 H   0  0  0  0  0  0  0  0  0  0  0  0
  -14.5260  -32.6000   54.9860 H   0  0  0  0  0  0  0  0  0  0  0  0
  -13.9760  -31.6630   55.7670 C   0  0  0  0  0 15  0  0  0  0  0  0
  -13.0410  -31.5850   56.9370 C   0  0  0  0  0  2  0  0  0  0  0  0
  -12.5470  -31.2550   55.5590 C   0  0  0  0  0  3  0  0  0  0  0  0
  -13.0020  -31.4630   56.1630 H   0  0  0  0  0  0  0  0  0  0  0  0
  -12.8590  -31.6890   57.9870 H   0  0  0  0  0  0  0  0  0  0  0  0
  -12.0090  -31.3310   57.0660 H   0  0  0  0  0  0  0  0  0  0  0  0
  -11.7560  -30.9520   54.9070 H   0  0  0  0  0  0  0  0  0  0  0  0
  -12.9880  -31.2310   54.5850 H   0  0  0  0  0  0  0  0  0  0  0  0
  -20.1600  -24.9380   56.5590 C   0  0  0  0  0  0  0  0  0  0  0  0
  -19.9700  -23.9760   56.9870 H   0  0  0  0  0  0  0  0  0  0  0  0
  -19.3460  -25.5950   56.3340 H   0  0  0  0  0  0  0  0  0  0  0  0
  -19.1550  -24.6330   56.7620 H   0  0  0  0  0  0  0  0  0  0  0  0
  -25.7970  -26.6520   55.4210 N   0  0  0  0  0  0  0  0  0  0  0  0
  -26.1640  -28.1050   55.4760 C   0  0  0  0  0  0  0  0  0  0  0  0
  -25.1230  -29.1300   55.8150 O   0  0  0  0  0  0  0  0  0  0  0  0
  -26.4800  -25.9790   55.1990 H   0  0  0  0  0  0  0  0  0  0  0  0
  -27.5730  -28.5330   55.1910 C   0  0  0  0  0  0  0  0  0  0  0  0
  -28.2970  -28.5480   55.9790 H   0  0  0  0  0  0  0  0  0  0  0  0
  -28.5780  -28.8390   54.9880 H   0  0  0  0  0  0  0  0  0  0  0  0
  -27.9680  -28.9410   53.8030 C   0  0  0  0  0  1  0  0  0  0  0  0
  -27.6530  -29.6470   52.5170 C   0  0  0  0  0  2  0  0  0  0  0  0
  -28.9650  -28.9390   52.6820 C   0  0  0  0  0  3  0  0  0  0  0  0
  -28.2490  -29.2310   52.8120 H   0  0  0  0  0  0  0  0  0  0  0  0
  -26.9830  -30.2300   51.9200 H   0  0  0  0  0  0  0  0  0  0  0  0
  -28.1670  -29.7970   51.5910 H   0  0  0  0  0  0  0  0  0  0  0  0
  -29.9160  -28.6470   52.2890 H   0  0  0  0  0  0  0  0  0  0  0  0
  -29.4280  -28.3760   53.4660 H   0  0  0  0  0  0  0  0  0  0  0  0
  1 35  1  0
  1  2  1  0
  2  7  1  0
  3  8  1  0
  3  2  2  0
  4  3  1  0
  5  6  1  0
  5  4  2  0
  6  1  2  0
  9  5  1  0
 10  6  1  0
 10 11  1  0
 11 16  1  0
 12 11  2  0
 12 17  1  0
 13 12  1  0
 14 15  1  0
 14 13  2  0
 15 10  2  0
 18 14  1  0
 19 15  1  0
 20 13  1  0
 20 22  1  0
 21 20  2  0
 22 23  1  0
 24 22  2  0
 25 24  1  0
 26 24  1  0
 28 32  1  0
 28 31  1  0
 29 30  1  0
 33 29  1  0
 34 29  1  0
 35 38  1  0
 35 36  1  0
 37 35  1  0
 39 40  1  0
 39  4  1  0
 40 41  2  0
 42 39  1  0
 43 40  1  0
 43 44  1  0
 45 43  1  0
 46 43  1  0
 48 49  1  0
 48 53  1  0
 50 47  1  0
 51 47  1  0
 52 48  1  0
M  END
>  <minimizedAffinity>  (189) 
-9.66868305

$$$$

     RDKit          3D

 37 40  0  0  1  0  0  0  0  0999 V2000
  -19.6860  -28.0170   54.5150 C   0  0  0  0  0  0  0  0  0  0  0  0
  -20.1480  -26.7720   55.2130 C   0  0  0  0  0  3  0  0  0  0  0  0
  -19.2690  -25.6690   55.7220 C   0  0  0  0  0  0  0  0  0  0  0  0
  -17.7730  -25.6170   55.6220 O   0  0  0  0  0  0  0  0  0  0  0  0
  -20.1480  -24.6270   56.3490 N   0  0  0  0  0  0  0  0  0  0  0  0
  -21.5700  -25.0870   56.2270 C   0  0  0  0  0  0  0  0  0  0  0  0
  -22.8650  -24.4700   56.6640 C   0  0  0  0  0  0  0  0  0  0  0  0
  -24.1610  -25.1780   56.4010 C   0  0  0  0  0  0  0  0  0  0  0  0
  -24.1610  -26.5030   55.6990 C   0  0  0  0  0  0  0  0  0  0  0  0
  -25.2730  -27.4300   55.3040 N   0  0  0  0  0  0  0  0  0  0  0  0
  -24.6650  -28.6200   54.6220 C   0  0  0  0  0  0  0  0  0  0  0  0
  -23.1780  -28.4290   54.5960 S   0  0  0  0  0  0  0  0  0  0  0  0
  -22.8670  -27.1210   55.2610 C   0  0  0  0  0  0  0  0  0  0  0  0
  -21.5710  -26.4120   55.5250 C   0  0  0  0  0  0  0  0  0  0  0  0
  -20.3750  -28.7190   54.2020 H   0  0  0  0  0  0  0  0  0  0  0  0
  -19.8440  -23.7890   56.7660 H   0  0  0  0  0  0  0  0  0  0  0  0
  -22.8650  -23.5570   57.1480 H   0  0  0  0  0  0  0  0  0  0  0  0
  -25.0520  -24.7530   56.7020 H   0  0  0  0  0  0  0  0  0  0  0  0
  -25.1800  -29.4270   54.2390 H   0  0  0  0  0  0  0  0  0  0  0  0
  -18.2230  -28.2410   54.2710 N   0  0  0  0  0  4  0  0  0  0  0  0
  -17.7550  -27.7220   53.5790 H   0  0  0  0  0  0  0  0  0  0  0  0
  -15.9780  -31.2900   56.7030 C   0  0  0  0  0  0  0  0  0  0  0  0
  -17.4380  -31.4850   56.4180 C   0  0  0  0  0  0  0  0  0  0  0  0
  -18.1860  -30.4690   55.6070 C   0  0  0  0  0  0  0  0  0  0  0  0
  -17.4750  -29.2570   55.0810 C   0  0  0  0  0  0  0  0  0  0  0  0
  -16.0150  -29.0620   55.3660 C   0  0  0  0  0  0  0  0  0  0  0  0
  -15.2670  -30.0780   56.1770 C   0  0  0  0  0  0  0  0  0  0  0  0
  -17.9270  -32.3180   56.7800 H   0  0  0  0  0  0  0  0  0  0  0  0
  -19.1910  -30.6030   55.4120 H   0  0  0  0  0  0  0  0  0  0  0  0
  -15.5260  -28.2290   55.0040 H   0  0  0  0  0  0  0  0  0  0  0  0
  -14.2620  -29.9440   56.3730 H   0  0  0  0  0  0  0  0  0  0  0  0
  -15.2300  -32.3060   57.5130 S   0  0  2  0  0  0  0  0  0  0  0  0
  -13.9730  -31.5020   57.3610 O   0  0  0  0  0  0  0  0  0  0  0  0
  -16.4870  -33.1100   57.6660 O   0  0  0  0  0  0  0  0  0  0  0  0
  -14.4810  -33.3220   58.3240 N   0  0  0  0  0  0  0  0  0  0  0  0
  -13.4870  -33.1940   58.5100 H   0  0  0  0  0  0  0  0  0  0  0  0
  -14.9670  -34.1420   58.6900 H   0  0  0  0  0  0  0  0  0  0  0  0
  2  1  1  0
  2 14  1  0
  2  3  1  0
  3  5  1  0
  4  3  2  0
  5 16  1  0
  6  5  1  0
  6  7  1  0
  7 17  1  0
  8  7  2  0
  8 18  1  0
  9  8  1  0
 10  9  1  0
 11 10  2  0
 12 11  1  0
 12 13  1  0
 13 14  1  0
 13  9  2  0
 14  6  2  0
 15  1  1  0
 19 11  1  0
 20  1  2  0
 20 25  1  0
 21 20  1  0
 22 32  1  0
 23 22  1  0
 23 28  1  0
 24 23  2  0
 25 26  2  0
 25 24  1  0
 26 27  1  0
 27 31  1  0
 27 22  2  0
 29 24  1  0
 30 26  1  0
 32 34  2  0
 32 35  1  0
 33 32  2  0
 35 36  1  0
 35 37  1  0
M  END
>  <minimizedAffinity>  (190) 
-8.66677284

$$$$

     RDKit          3D

 39 42  0  0  0  0  0  0  0  0999 V2000
  -19.6890  -28.0220   54.4890 N   0  0  0  0  0  0  0  0  0  0  0  0
  -20.1190  -26.7630   55.1820 C   0  0  0  0  0  0  0  0  0  0  0  0
  -19.2130  -25.6690   55.6650 C   0  0  0  0  0  0  0  0  0  0  0  0
  -17.7180  -25.6420   55.5390 O   0  0  0  0  0  0  0  0  0  0  0  0
  -20.0640  -24.6070   56.2950 N   0  0  0  0  0  0  0  0  0  0  0  0
  -21.4960  -25.0440   56.2020 C   0  0  0  0  0  0  0  0  0  0  0  0
  -22.7730  -24.4010   56.6550 C   0  0  0  0  0  0  0  0  0  0  0  0
  -24.0840  -25.0910   56.4200 C   0  0  0  0  0  0  0  0  0  0  0  0
  -24.1180  -26.4230   55.7330 C   0  0  0  0  0  0  0  0  0  0  0  0
  -25.4290  -27.1130   55.4980 N   0  0  0  0  0  0  0  0  0  0  0  0
  -25.4630  -28.4460   54.8100 C   0  0  0  0  0  0  0  0  0  0  0  0
  -24.1860  -29.0880   54.3570 C   0  0  0  0  0  0  0  0  0  0  0  0
  -22.8750  -28.3990   54.5920 C   0  0  0  0  0  0  0  0  0  0  0  0
  -22.8410  -27.0660   55.2800 C   0  0  0  0  0  0  0  0  0  0  0  0
  -21.5300  -26.3770   55.5140 C   0  0  0  0  0  0  0  0  0  0  0  0
  -19.7400  -23.7690   56.6990 H   0  0  0  0  0  0  0  0  0  0  0  0
  -22.7500  -23.4840   57.1290 H   0  0  0  0  0  0  0  0  0  0  0  0
  -24.9630  -24.6490   56.7320 H   0  0  0  0  0  0  0  0  0  0  0  0
  -26.3660  -28.9200   54.6480 H   0  0  0  0  0  0  0  0  0  0  0  0
  -24.2100  -30.0050   53.8840 H   0  0  0  0  0  0  0  0  0  0  0  0
  -21.9960  -28.8410   54.2800 H   0  0  0  0  0  0  0  0  0  0  0  0
  -18.2350  -28.2720   54.2230 N   0  0  0  0  0  0  0  0  0  0  0  0
  -17.7700  -27.7710   53.5140 H   0  0  0  0  0  0  0  0  0  0  0  0
  -15.9930  -31.3130   56.6680 C   0  0  0  0  0  0  0  0  0  0  0  0
  -15.2880  -30.0890   56.1640 C   0  0  0  0  0  0  0  0  0  0  0  0
  -16.0350  -29.0750   55.3490 C   0  0  0  0  0  0  0  0  0  0  0  0
  -17.4870  -29.2860   55.0380 C   0  0  0  0  0  0  0  0  0  0  0  0
  -18.1930  -30.5100   55.5420 C   0  0  0  0  0  0  0  0  0  0  0  0
  -17.4450  -31.5240   56.3580 C   0  0  0  0  0  0  0  0  0  0  0  0
  -14.2890  -29.9440   56.3780 H   0  0  0  0  0  0  0  0  0  0  0  0
  -15.5500  -28.2330   55.0020 H   0  0  0  0  0  0  0  0  0  0  0  0
  -19.1910  -30.6550   55.3290 H   0  0  0  0  0  0  0  0  0  0  0  0
  -17.9300  -32.3660   56.7040 H   0  0  0  0  0  0  0  0  0  0  0  0
  -15.2450  -32.3260   57.4830 S   0  0  1  0  0  0  0  0  0  0  0  0
  -13.9920  -31.5150   57.3440 O   0  0  0  0  0  0  0  0  0  0  0  0
  -16.4990  -33.1390   57.6220 O   0  0  0  0  0  0  0  0  0  0  0  0
  -14.4980  -33.3400   58.2980 N   0  0  0  0  0  0  0  0  0  0  0  0
  -13.5060  -33.2060   58.4930 H   0  0  0  0  0  0  0  0  0  0  0  0
  -14.9810  -34.1630   58.6570 H   0  0  0  0  0  0  0  0  0  0  0  0
  1  2  2  0
  2 15  1  0
  2  3  1  0
  3  5  1  0
  4  3  2  0
  5 16  1  0
  6  5  1  0
  6  7  1  0
  7 17  1  0
  8  7  2  0
  8 18  1  0
  9  8  1  0
 10  9  1  0
 11 10  2  0
 12 13  2  0
 12 11  1  0
 13 14  1  0
 14 15  1  0
 14  9  2  0
 15  6  2  0
 19 11  1  0
 20 12  1  0
 21 13  1  0
 22  1  1  0
 22 27  1  0
 23 22  1  0
 24 34  1  0
 25 30  1  0
 25 24  2  0
 26 25  1  0
 27 26  2  0
 27 28  1  0
 28 29  2  0
 29 24  1  0
 29 33  1  0
 31 26  1  0
 32 28  1  0
 34 36  2  0
 34 37  1  0
 35 34  2  0
 37 38  1  0
 37 39  1  0
M  END
>  <minimizedAffinity>  (191) 
-9.03485394

$$$$

     RDKit          3D

 44 47  0  0  1  0  0  0  0  0999 V2000
  -15.1390  -30.9290   57.0470 C   0  0  0  0  0  0  0  0  0  0  0  0
  -16.3050  -31.8700   56.9640 C   0  0  0  0  0  0  0  0  0  0  0  0
  -17.4680  -31.5460   56.0750 C   0  0  0  0  0  0  0  0  0  0  0  0
  -17.4670  -30.2820   55.2690 C   0  0  0  0  0  0  0  0  0  0  0  0
  -16.3020  -29.3400   55.3510 C   0  0  0  0  0  0  0  0  0  0  0  0
  -15.1380  -29.6650   56.2400 C   0  0  0  0  0  0  0  0  0  0  0  0
  -16.3050  -32.7400   57.5190 H   0  0  0  0  0  0  0  0  0  0  0  0
  -18.2700  -32.1940   56.0180 H   0  0  0  0  0  0  0  0  0  0  0  0
  -16.3010  -28.4710   54.7960 H   0  0  0  0  0  0  0  0  0  0  0  0
  -14.3360  -29.0170   56.2970 H   0  0  0  0  0  0  0  0  0  0  0  0
  -12.9190  -31.8090   54.9030 N   0  0  0  0  0  0  0  0  0  0  0  0
  -12.0650  -32.0080   56.1210 C   0  0  0  0  0  0  0  0  0  0  0  0
  -10.6510  -32.4850   55.9760 N   0  0  0  0  0  0  0  0  0  0  0  0
   -9.7970  -32.6830   57.1930 C   0  0  0  0  0  3  0  0  0  0  0  0
  -10.3590  -32.4040   58.5560 N   0  0  0  0  0  0  0  0  0  0  0  0
  -11.7730  -31.9270   58.7010 C   0  0  0  0  0  0  0  0  0  0  0  0
  -12.5940  -31.5740   59.9060 O   0  0  0  0  0  0  0  0  0  0  0  0
  -13.9550  -31.1570   59.4320 C   0  0  0  0  0  0  0  0  0  0  0  0
  -13.9760  -31.2520   57.9350 C   0  0  0  0  0  0  0  0  0  0  0  0
  -12.6270  -31.7290   57.4840 C   0  0  0  0  0  3  0  0  0  0  0  0
  -12.5500  -31.9920   54.0090 H   0  0  0  0  0  0  0  0  0  0  0  0
  -13.8470  -31.4960   54.9990 H   0  0  0  0  0  0  0  0  0  0  0  0
   -8.8240  -33.0110   57.0930 H   0  0  0  0  0  0  0  0  0  0  0  0
  -14.7400  -30.8570   60.0310 H   0  0  0  0  0  0  0  0  0  0  0  0
  -18.6310  -29.9580   54.3790 N   0  0  0  0  0  0  0  0  0  0  0  0
  -19.7930  -29.1760   54.9190 C   0  0  0  0  0  0  0  0  0  0  0  0
  -19.7900  -28.7190   56.3470 O   0  0  0  0  0  0  0  0  0  0  0  0
  -20.9560  -28.8520   54.0290 N   0  0  0  0  0  0  0  0  0  0  0  0
  -18.6330  -30.2580   53.4410 H   0  0  0  0  0  0  0  0  0  0  0  0
  -20.9580  -29.1520   53.0920 H   0  0  0  0  0  0  0  0  0  0  0  0
  -22.1170  -28.0710   54.5690 C   0  0  0  0  0  0  0  0  0  0  0  0
  -23.5090  -28.6170   54.4500 C   0  0  0  0  0  0  0  0  0  0  0  0
  -24.6710  -27.8360   54.9890 C   0  0  0  0  0  0  0  0  0  0  0  0
  -24.4400  -26.5090   55.6480 C   0  0  0  0  0  0  0  0  0  0  0  0
  -23.0480  -25.9630   55.7680 C   0  0  0  0  0  0  0  0  0  0  0  0
  -21.8870  -26.7440   55.2280 C   0  0  0  0  0  0  0  0  0  0  0  0
  -23.6680  -29.5300   53.9960 H   0  0  0  0  0  0  0  0  0  0  0  0
  -25.6290  -28.2120   54.9070 H   0  0  0  0  0  0  0  0  0  0  0  0
  -25.2390  -25.9710   56.0200 H   0  0  0  0  0  0  0  0  0  0  0  0
  -20.9290  -26.3680   55.3110 H   0  0  0  0  0  0  0  0  0  0  0  0
  -22.8180  -24.6350   56.4280 C   0  0  0  0  0  0  0  0  0  0  0  0
  -22.5890  -23.3070   57.0870 F   0  0  0  0  0  0  0  0  0  0  0  0
  -21.3390  -24.8840   56.4150 F   0  0  0  0  0  0  0  0  0  0  0  0
  -24.2970  -24.3860   56.4400 F   0  0  0  0  0  0  0  0  0  0  0  0
  1 19  1  0
  2  1  1  0
  2  7  1  0
  3  2  2  0
  4  5  2  0
  4  3  1  0
  5  6  1  0
  6 10  1  0
  6  1  2  0
  8  3  1  0
  9  5  1  0
 11 22  1  0
 11 12  1  0
 13 12  2  0
 13 14  1  0
 14 15  1  0
 15 16  2  0
 16 17  1  0
 18 17  1  0
 18 24  1  0
 19 18  2  0
 20 12  1  0
 20 19  1  0
 20 16  1  0
 21 11  1  0
 23 14  1  0
 25 26  1  0
 25  4  1  0
 26 27  2  0
 28 31  1  0
 28 26  1  0
 29 25  1  0
 30 28  1  0
 31 36  1  0
 32 31  2  0
 32 33  1  0
 33 34  2  0
 34 35  1  0
 34 39  1  0
 35 41  1  0
 36 40  1  0
 36 35  2  0
 37 32  1  0
 38 33  1  0
 41 44  1  0
 41 42  1  0
 43 41  1  0
M  END
>  <minimizedAffinity>  (192) 
-9.85417938

$$$$

     RDKit          3D

 37 39  0  0  0  0  0  0  0  0999 V2000
  -18.9910  -30.9500   54.5200 N   0  0  0  0  0  2  0  0  0  0  0  0
  -20.3290  -30.6850   53.8960 C   0  0  0  0  0  0  0  0  0  0  0  0
  -20.7080  -31.3690   52.6160 N   0  0  0  0  0  0  0  0  0  0  0  0
  -22.0460  -31.1040   51.9920 C   0  0  0  0  0  3  0  0  0  0  0  0
  -23.0050  -30.1550   52.6480 C   0  0  0  0  0  0  0  0  0  0  0  0
  -22.6260  -29.4710   53.9280 C   0  0  0  0  0  0  0  0  0  0  0  0
  -21.2880  -29.7360   54.5510 N   0  0  0  0  0  0  0  0  0  0  0  0
  -18.3620  -31.5730   54.0900 H   0  0  0  0  0  0  0  0  0  0  0  0
  -22.3070  -31.5740   51.1120 H   0  0  0  0  0  0  0  0  0  0  0  0
  -23.9250  -29.9730   52.2180 H   0  0  0  0  0  0  0  0  0  0  0  0
  -23.5840  -28.5220   54.5830 C   0  0  0  0  0  0  0  0  0  0  0  0
  -25.0650  -28.7180   54.7200 C   0  0  0  0  0  0  0  0  0  0  0  0
  -25.6270  -27.5270   55.4380 N   0  0  0  0  0  0  0  0  0  0  0  0
  -24.4930  -26.5940   55.7460 N   0  0  0  0  0  0  0  0  0  0  0  0
  -24.4470  -25.2650   56.4380 N   0  0  0  0  0  0  0  0  0  0  0  0
  -23.1380  -24.5490   56.6020 C   0  0  0  0  0  0  0  0  0  0  0  0
  -21.8760  -25.1640   56.0740 C   0  0  0  0  0  0  0  0  0  0  0  0
  -21.9220  -26.4940   55.3810 C   0  0  0  0  0  0  0  0  0  0  0  0
  -23.2310  -27.2090   55.2170 C   0  0  0  0  0  0  0  0  0  0  0  0
  -25.6030  -29.5300   54.3800 H   0  0  0  0  0  0  0  0  0  0  0  0
  -23.1070  -23.6340   57.0790 H   0  0  0  0  0  0  0  0  0  0  0  0
  -20.9760  -24.6720   56.1870 H   0  0  0  0  0  0  0  0  0  0  0  0
  -21.0540  -26.9160   55.0170 H   0  0  0  0  0  0  0  0  0  0  0  0
  -18.6120  -30.2650   55.8000 C   0  0  0  0  0  3  0  0  0  0  0  0
  -18.9120  -30.6810   56.7390 H   0  0  0  0  0  0  0  0  0  0  0  0
  -19.1830  -31.1700   55.8260 H   0  0  0  0  0  0  0  0  0  0  0  0
  -15.4080  -25.1940   55.6560 Cl  0  0  0  0  0  0  0  0  0  0  0  0
  -16.2090  -26.4620   55.6920 C   0  0  0  0  0  0  0  0  0  0  0  0
  -17.7000  -26.4030   55.8430 C   0  0  0  0  0  0  0  0  0  0  0  0
  -18.5010  -27.6710   55.8790 C   0  0  0  0  0  0  0  0  0  0  0  0
  -17.8110  -28.9970   55.7640 C   0  0  0  0  0  0  0  0  0  0  0  0
  -16.3190  -29.0570   55.6130 C   0  0  0  0  0  0  0  0  0  0  0  0
  -15.5190  -27.7890   55.5770 C   0  0  0  0  0  0  0  0  0  0  0  0
  -18.1750  -25.4900   55.9210 H   0  0  0  0  0  0  0  0  0  0  0  0
  -19.5270  -27.6300   55.9820 H   0  0  0  0  0  0  0  0  0  0  0  0
  -15.8450  -29.9690   55.5350 H   0  0  0  0  0  0  0  0  0  0  0  0
  -14.4920  -27.8290   55.4740 H   0  0  0  0  0  0  0  0  0  0  0  0
  2  1  1  0
  2  7  2  0
  3  2  2  0
  4  3  1  0
  4  5  1  0
  5  6  2  0
  6  7  1  0
  6 11  1  0
  8  1  1  0
  9  4  1  0
 10  5  1  0
 11 12  1  0
 11 19  2  0
 12 13  2  0
 13 14  1  0
 14 15  1  0
 15 16  2  0
 16 21  1  0
 17 22  1  0
 17 16  1  0
 18 17  2  0
 19 18  1  0
 19 14  1  0
 20 12  1  0
 23 18  1  0
 24 26  1  0
 24 25  1  0
 27 28  1  0
 28 29  1  0
 29 30  2  0
 29 34  1  0
 30 35  1  0
 31 24  1  0
 31 30  1  0
 32 31  2  0
 33 32  1  0
 33 28  2  0
 36 32  1  0
 37 33  1  0
M  END
>  <minimizedAffinity>  (193) 
-8.60041618

$$$$

     RDKit          3D

 56 60  0  0  0  0  0  0  0  0999 V2000
  -17.0740  -28.6800   55.1030 C   0  0  0  0  0  0  0  0  0  0  0  0
  -16.5590  -27.2820   54.9250 C   0  0  0  0  0  0  0  0  0  0  0  0
  -17.4060  -26.1130   55.3310 C   0  0  0  0  0  0  0  0  0  0  0  0
  -18.7680  -26.3410   55.9170 C   0  0  0  0  0  0  0  0  0  0  0  0
  -19.2830  -27.7380   56.0950 C   0  0  0  0  0  0  0  0  0  0  0  0
  -18.4360  -28.9080   55.6880 C   0  0  0  0  0  0  0  0  0  0  0  0
  -15.6210  -27.1250   54.5220 H   0  0  0  0  0  0  0  0  0  0  0  0
  -17.0510  -25.1510   55.2090 H   0  0  0  0  0  0  0  0  0  0  0  0
  -20.2200  -27.8950   56.4980 H   0  0  0  0  0  0  0  0  0  0  0  0
  -18.7900  -29.8690   55.8110 H   0  0  0  0  0  0  0  0  0  0  0  0
  -15.3060  -30.0250   57.1190 O   0  0  0  0  0  0  0  0  0  0  0  0
  -15.3430  -30.5210   55.7040 C   0  0  0  0  0  0  0  0  0  0  0  0
  -16.2270  -29.8490   54.6960 N   0  0  0  0  0  0  0  0  0  0  0  0
  -14.4960  -31.6910   55.2980 N   0  0  0  0  0  0  0  0  0  0  0  0
  -16.2510  -30.1750   53.7680 H   0  0  0  0  0  0  0  0  0  0  0  0
  -14.5200  -32.0170   54.3690 H   0  0  0  0  0  0  0  0  0  0  0  0
  -13.6120  -32.3630   56.3060 C   0  0  0  0  0  0  0  0  0  0  0  0
  -12.4380  -31.6290   56.8820 C   0  0  0  0  0  0  0  0  0  0  0  0
  -11.5540  -32.3010   57.8900 C   0  0  0  0  0  0  0  0  0  0  0  0
  -11.8440  -33.7080   58.3220 C   0  0  0  0  0  0  0  0  0  0  0  0
  -13.0180  -34.4420   57.7460 C   0  0  0  0  0  0  0  0  0  0  0  0
  -13.9020  -33.7700   56.7380 C   0  0  0  0  0  0  0  0  0  0  0  0
  -15.0770  -34.5040   56.1620 F   0  0  0  0  0  0  0  0  0  0  0  0
  -12.2380  -30.6610   56.5840 H   0  0  0  0  0  0  0  0  0  0  0  0
  -11.2360  -34.1710   59.0150 H   0  0  0  0  0  0  0  0  0  0  0  0
  -13.2180  -35.4100   58.0430 H   0  0  0  0  0  0  0  0  0  0  0  0
  -10.3790  -31.5670   58.4660 C   0  0  0  0  0  0  0  0  0  0  0  0
   -9.2050  -30.8330   59.0410 F   0  0  0  0  0  0  0  0  0  0  0  0
  -11.2880  -30.8790   59.4410 F   0  0  0  0  0  0  0  0  0  0  0  0
   -9.4710  -32.2550   57.4900 F   0  0  0  0  0  0  0  0  0  0  0  0
  -19.6150  -25.1720   56.3230 O   0  0  0  0  0  0  0  0  0  0  0  0
  -21.1100  -25.2650   56.2430 C   0  0  0  0  0  0  0  0  0  0  0  0
  -21.9550  -24.0770   56.5990 C   0  0  0  0  0  0  0  0  0  0  0  0
  -23.4500  -24.1700   56.5180 C   0  0  0  0  0  0  0  0  0  0  0  0
  -24.0990  -25.4500   56.0830 C   0  0  0  0  0  0  0  0  0  0  0  0
  -25.5390  -25.8370   55.9090 N   0  0  0  0  0  0  0  0  0  0  0  0
  -25.5830  -27.2630   55.4470 C   0  0  0  0  0  0  0  0  0  0  0  0
  -26.8210  -28.0560   55.1490 N   0  0  0  0  0  0  0  0  0  0  0  0
  -28.1720  -27.4240   55.3080 C   0  0  0  0  0  0  0  0  0  0  0  0
  -28.2850  -26.0000   55.7650 O   0  0  0  0  0  0  0  0  0  0  0  0
  -24.1710  -27.7580   55.3350 N   0  0  0  0  0  0  0  0  0  0  0  0
  -23.2540  -26.6370   55.7270 C   0  0  0  0  0  0  0  0  0  0  0  0
  -21.7590  -26.5440   55.8080 C   0  0  0  0  0  0  0  0  0  0  0  0
  -21.5080  -23.1970   56.8980 H   0  0  0  0  0  0  0  0  0  0  0  0
  -24.0320  -23.3530   56.7630 H   0  0  0  0  0  0  0  0  0  0  0  0
  -26.3170  -25.2570   56.0710 H   0  0  0  0  0  0  0  0  0  0  0  0
  -26.7460  -28.9910   54.8490 H   0  0  0  0  0  0  0  0  0  0  0  0
  -21.1770  -27.3610   55.5630 H   0  0  0  0  0  0  0  0  0  0  0  0
  -29.4100  -28.2160   55.0100 C   0  0  0  0  0  0  0  0  0  0  0  0
  -29.8390  -28.7080   53.6600 C   0  0  0  0  0  0  0  0  0  0  0  0
  -31.1300  -29.4520   53.8250 C   0  0  0  0  0  0  0  0  0  0  0  0
  -31.5000  -29.4200   55.2780 C   0  0  0  0  0  0  0  0  0  0  0  0
  -30.4370  -28.6560   56.0100 O   0  0  0  0  0  0  0  0  0  0  0  0
  -29.3330  -28.5600   52.7710 H   0  0  0  0  0  0  0  0  0  0  0  0
  -31.6700  -29.9060   53.0720 H   0  0  0  0  0  0  0  0  0  0  0  0
  -32.3390  -29.8480   55.7000 H   0  0  0  0  0  0  0  0  0  0  0  0
  1  6  1  0
  2  1  2  0
  2  3  1  0
  3  4  2  0
  4  5  1  0
  4 31  1  0
  5  9  1  0
  6 10  1  0
  6  5  2  0
  7  2  1  0
  8  3  1  0
 12 11  2  0
 13  1  1  0
 13 12  1  0
 14 12  1  0
 14 17  1  0
 15 13  1  0
 16 14  1  0
 17 22  2  0
 17 18  1  0
 18 19  2  0
 19 20  1  0
 19 27  1  0
 20 25  1  0
 21 26  1  0
 21 20  2  0
 22 21  1  0
 23 22  1  0
 24 18  1  0
 27 28  1  0
 27 29  1  0
 30 27  1  0
 32 31  1  0
 32 33  1  0
 33 44  1  0
 34 33  2  0
 34 45  1  0
 35 34  1  0
 36 46  1  0
 36 35  1  0
 37 36  1  0
 38 39  1  0
 38 37  1  0
 39 40  2  0
 41 37  2  0
 41 42  1  0
 42 43  1  0
 42 35  2  0
 43 32  2  0
 47 38  1  0
 48 43  1  0
 49 39  1  0
 49 53  1  0
 50 51  1  0
 50 49  2  0
 51 52  2  0
 52 56  1  0
 52 53  1  0
 54 50  1  0
 55 51  1  0
M  END
>  <minimizedAffinity>  (194) 
-10.1708536

$$$$

     RDKit          3D

 40 42  0  0  0  0  0  0  0  0999 V2000
  -23.1760  -26.8680   55.5240 C   0  0  0  0  0  0  0  0  0  0  0  0
  -24.0780  -25.7280   55.8920 C   0  0  0  0  0  0  0  0  0  0  0  0
  -23.4930  -24.4370   56.3840 C   0  0  0  0  0  0  0  0  0  0  0  0
  -22.0060  -24.2860   56.5060 N   0  0  0  0  0  0  0  0  0  0  0  0
  -21.1040  -25.4260   56.1370 C   0  0  0  0  0  0  0  0  0  0  0  0
  -19.6160  -25.2750   56.2600 N   0  0  0  0  0  0  0  0  0  0  0  0
  -21.6880  -26.7170   55.6460 N   0  0  0  0  0  0  0  0  0  0  0  0
  -25.1020  -25.8320   55.8080 H   0  0  0  0  0  0  0  0  0  0  0  0
  -24.1140  -23.6530   56.6370 H   0  0  0  0  0  0  0  0  0  0  0  0
  -19.2330  -24.4280   56.5820 H   0  0  0  0  0  0  0  0  0  0  0  0
  -18.7140  -26.4150   55.8910 C   0  0  0  0  0  0  0  0  0  0  0  0
  -17.3080  -26.1440   55.4430 C   0  0  0  0  0  0  0  0  0  0  0  0
  -16.4060  -27.2840   55.0740 C   0  0  0  0  0  0  0  0  0  0  0  0
  -16.9090  -28.6950   55.1530 C   0  0  0  0  0  0  0  0  0  0  0  0
  -18.3150  -28.9660   55.6010 C   0  0  0  0  0  0  0  0  0  0  0  0
  -19.2170  -27.8260   55.9700 C   0  0  0  0  0  0  0  0  0  0  0  0
  -18.8180  -30.3770   55.6800 O   0  0  0  0  0  0  0  0  0  0  0  0
  -17.9150  -31.5170   55.3110 C   0  0  0  0  0  3  0  0  0  0  0  0
  -16.5100  -31.2460   54.8640 C   0  0  0  0  0  2  0  0  0  0  0  0
  -16.0060  -29.8350   54.7840 O   0  0  0  0  0  1  0  0  0  0  0  0
  -16.9620  -25.1730   55.3890 H   0  0  0  0  0  0  0  0  0  0  0  0
  -15.4390  -27.0980   54.7660 H   0  0  0  0  0  0  0  0  0  0  0  0
  -20.1840  -28.0120   56.2780 H   0  0  0  0  0  0  0  0  0  0  0  0
  -18.2740  -32.5230   55.3680 H   0  0  0  0  0  0  0  0  0  0  0  0
  -17.2720  -32.3300   55.0480 H   0  0  0  0  0  0  0  0  0  0  0  0
  -15.8660  -32.0590   54.6000 H   0  0  0  0  0  0  0  0  0  0  0  0
  -15.5070  -31.0520   54.5440 H   0  0  0  0  0  0  0  0  0  0  0  0
  -21.4940  -30.1000   52.2920 C   0  0  0  0  0  0  0  0  0  0  0  0
  -22.4180  -31.2660   52.1000 C   0  0  0  0  0  0  0  0  0  0  0  0
  -23.7040  -31.3390   52.8690 N   0  0  0  0  0  0  0  0  0  0  0  0
  -24.0660  -30.2450   53.8310 N   0  0  0  0  0  0  0  0  0  0  0  0
  -25.2560  -30.0450   54.7220 N   0  0  0  0  0  0  0  0  0  0  0  0
  -25.0670  -28.7560   55.4640 C   0  0  0  0  0  0  0  0  0  0  0  0
  -23.7610  -28.1590   55.0320 C   0  0  0  0  0  0  0  0  0  0  0  0
  -23.1410  -29.0800   54.0220 C   0  0  0  0  0  0  0  0  0  0  0  0
  -21.8560  -29.0070   53.2530 C   0  0  0  0  0  0  0  0  0  0  0  0
  -20.6100  -30.0500   51.7620 H   0  0  0  0  0  0  0  0  0  0  0  0
  -22.1690  -32.0180   51.4380 H   0  0  0  0  0  0  0  0  0  0  0  0
  -25.7210  -28.3510   56.1520 H   0  0  0  0  0  0  0  0  0  0  0  0
  -21.2200  -28.2040   53.3850 H   0  0  0  0  0  0  0  0  0  0  0  0
  1  7  2  0
  1  2  1  0
  2  3  2  0
  3  4  1  0
  3  9  1  0
  5  6  1  0
  5  4  2  0
  6 10  1  0
  7  5  1  0
  8  2  1  0
 11 16  1  0
 11  6  1  0
 12 11  2  0
 13 14  2  0
 13 12  1  0
 14 15  1  0
 15 17  1  0
 15 16  2  0
 16 23  1  0
 18 24  1  0
 18 17  1  0
 20 14  1  0
 21 12  1  0
 22 13  1  0
 25 18  1  0
 26 19  1  0
 27 19  1  0
 28 36  2  0
 29 28  1  0
 29 30  2  0
 30 31  1  0
 31 35  1  0
 31 32  1  0
 32 33  2  0
 33 39  1  0
 34 33  1  0
 34  1  1  0
 35 34  2  0
 36 40  1  0
 36 35  1  0
 37 28  1  0
 38 29  1  0
M  END
>  <minimizedAffinity>  (195) 
-8.98636436

$$$$

     RDKit          3D

 49 44  0  0  0  0  0  0  0  0999 V2000
  -18.1430  -28.2750   54.0420 C   0  0  0  0  0  2  0  0  0  0  0  0
  -17.9160  -28.2500   52.9970 H   0  0  0  0  0  0  0  0  0  0  0  0
  -18.6970  -27.6320   53.3900 H   0  0  0  0  0  0  0  0  0  0  0  0
  -19.2380  -27.4090   54.5930 C   0  0  0  0  0  2  0  0  0  0  0  0
  -18.9130  -26.0540   55.1500 O   0  0  0  0  0  1  0  0  0  0  0  0
  -20.6560  -27.8980   54.5880 N   0  0  0  0  0  0  0  0  0  0  0  0
  -21.7500  -27.0320   55.1390 C   0  0  0  0  0  0  0  0  0  0  0  0
  -21.5790  -25.6620   55.7250 N   0  0  0  0  0  0  0  0  0  0  0  0
  -22.9300  -25.1670   56.1490 N   0  0  0  0  0  0  0  0  0  0  0  0
  -23.9360  -26.2310   55.8250 C   0  0  0  0  0  0  0  0  0  0  0  0
  -25.4220  -26.2990   56.0170 N   0  0  0  0  0  0  0  0  0  0  0  0
  -26.1780  -27.5200   55.5850 C   0  0  0  0  0  0  0  0  0  0  0  0
  -25.4490  -28.6730   54.9610 C   0  0  0  0  0  0  0  0  0  0  0  0
  -26.2060  -29.8940   54.5290 Br  0  0  0  0  0  0  0  0  0  0  0  0
  -23.9630  -28.6040   54.7680 C   0  0  0  0  0  0  0  0  0  0  0  0
  -23.2060  -27.3830   55.2000 C   0  0  0  0  0  0  0  0  0  0  0  0
  -20.8690  -28.7870   54.2220 H   0  0  0  0  0  0  0  0  0  0  0  0
  -23.1220  -24.2960   56.5670 H   0  0  0  0  0  0  0  0  0  0  0  0
  -23.4610  -29.3970   54.3390 H   0  0  0  0  0  0  0  0  0  0  0  0
  -27.6640  -27.5890   55.7770 C   0  0  0  0  0  0  0  0  0  0  0  0
  -28.3730  -28.0810   57.0050 C   0  0  0  0  0  0  0  0  0  0  0  0
  -29.8490  -27.9740   56.7620 C   0  0  0  0  0  0  0  0  0  0  0  0
  -30.0530  -27.4150   55.3850 C   0  0  0  0  0  0  0  0  0  0  0  0
  -28.7040  -27.1770   54.7760 S   0  0  0  0  0  0  0  0  0  0  0  0
  -27.9230  -28.4320   57.8640 H   0  0  0  0  0  0  0  0  0  0  0  0
  -30.5940  -28.2370   57.4260 H   0  0  0  0  0  0  0  0  0  0  0  0
  -30.9630  -27.2270   54.9350 H   0  0  0  0  0  0  0  0  0  0  0  0
  -15.8170  -30.9780   56.7850 N   0  0  0  0  0  1  0  0  0  0  0  0
  -17.2090  -31.3500   56.3700 C   0  0  0  0  0  3  0  0  0  0  0  0
  -17.9840  -30.4490   55.4560 C   0  0  0  0  0  2  0  0  0  0  0  0
  -17.3680  -29.1760   54.9560 C   0  0  0  0  0  1  0  0  0  0  0  0
  -15.9760  -28.8040   55.3720 C   0  0  0  0  0  2  0  0  0  0  0  0
  -15.2000  -29.7040   56.2860 C   0  0  0  0  0  2  0  0  0  0  0  0
  -17.6490  -32.2580   56.7260 H   0  0  0  0  0  0  0  0  0  0  0  0
  -18.2020  -31.6150   56.0740 H   0  0  0  0  0  0  0  0  0  0  0  0
  -18.9780  -30.7150   55.1590 H   0  0  0  0  0  0  0  0  0  0  0  0
  -18.5380  -29.8070   54.8030 H   0  0  0  0  0  0  0  0  0  0  0  0
  -16.9280  -28.2680   54.6000 H   0  0  0  0  0  0  0  0  0  0  0  0
  -15.5360  -27.8960   55.0150 H   0  0  0  0  0  0  0  0  0  0  0  0
  -14.9820  -28.5380   55.6680 H   0  0  0  0  0  0  0  0  0  0  0  0
  -14.2060  -29.4390   56.5830 H   0  0  0  0  0  0  0  0  0  0  0  0
  -14.6470  -30.3470   56.9390 H   0  0  0  0  0  0  0  0  0  0  0  0
  -15.0410  -31.8790   57.7010 C   0  0  0  0  0  3  0  0  0  0  0  0
  -14.8630  -32.8970   57.4230 H   0  0  0  0  0  0  0  0  0  0  0  0
  -15.4160  -32.2540   56.7720 H   0  0  0  0  0  0  0  0  0  0  0  0
  -14.5150  -31.3520   59.0030 C   0  0  0  0  0  0  0  0  0  0  0  0
  -14.6930  -30.3350   59.2790 H   0  0  0  0  0  0  0  0  0  0  0  0
  -13.9620  -31.9950   59.6550 H   0  0  0  0  0  0  0  0  0  0  0  0
  -14.1400  -30.9770   59.9320 H   0  0  0  0  0  0  0  0  0  0  0  0
  2  1  1  0
  3  1  1  0
  4  5  1  0
  6  4  1  0
  6  7  1  0
  7 16  1  0
  7  8  2  0
  8  9  1  0
  9 18  1  0
 10 11  1  0
 10  9  1  0
 12 20  1  0
 12 11  2  0
 13 12  1  0
 14 13  1  0
 15 13  2  0
 15 16  1  0
 16 10  2  0
 17  6  1  0
 19 15  1  0
 20 21  2  0
 21 25  1  0
 22 21  1  0
 22 26  1  0
 23 22  2  0
 24 23  1  0
 24 20  1  0
 27 23  1  0
 29 34  1  0
 29 28  1  0
 32 40  1  0
 33 41  1  0
 33 42  1  0
 35 29  1  0
 36 30  1  0
 37 30  1  0
 38 31  1  0
 39 32  1  0
 43 46  1  0
 44 43  1  0
 45 43  1  0
 46 47  1  0
 46 48  1  0
 46 49  1  0
M  END
>  <minimizedAffinity>  (196) 
-8.86123753

$$$$

     RDKit          3D

 50 47  0  0  0  0  0  0  0  0999 V2000
  -21.9550  -32.5860   52.4480 C   0  0  0  0  0  3  0  0  0  0  0  0
  -21.0640  -31.5140   53.0030 C   0  0  0  0  0 15  0  0  0  0  0  0
  -19.6030  -31.7850   53.2100 C   0  0  0  0  0  3  0  0  0  0  0  0
  -19.0340  -33.1290   52.8640 C   0  0  0  0  0  3  0  0  0  0  0  0
  -19.9240  -34.2010   52.3100 C   0  0  0  0  0 15  0  0  0  0  0  0
  -19.3540  -35.5450   51.9630 O   0  0  0  0  0 15  0  0  0  0  0  0
  -21.3850  -33.9300   52.1020 N   0  0  0  0  0  0  0  0  0  0  0  0
  -20.0100  -30.8270   53.4570 H   0  0  0  0  0  0  0  0  0  0  0  0
  -17.9920  -33.3220   53.0120 H   0  0  0  0  0  0  0  0  0  0  0  0
  -18.6270  -34.0880   52.6170 H   0  0  0  0  0  0  0  0  0  0  0  0
  -21.9690  -34.6340   51.7380 H   0  0  0  0  0  0  0  0  0  0  0  0
  -18.7130  -30.7130   53.7650 C   0  0  0  0  0  0  0  0  0  0  0  0
  -18.1240  -29.6800   52.8500 C   0  0  0  0  0  0  0  0  0  0  0  0
  -17.2330  -28.6080   53.4040 C   0  0  0  0  0  0  0  0  0  0  0  0
  -16.9320  -28.5690   54.8730 C   0  0  0  0  0  0  0  0  0  0  0  0
  -17.5200  -29.6020   55.7880 C   0  0  0  0  0  0  0  0  0  0  0  0
  -18.4110  -30.6740   55.2330 C   0  0  0  0  0  0  0  0  0  0  0  0
  -18.3320  -29.7070   51.8390 H   0  0  0  0  0  0  0  0  0  0  0  0
  -16.8280  -27.8970   52.7750 H   0  0  0  0  0  0  0  0  0  0  0  0
  -17.3120  -29.5750   56.7980 H   0  0  0  0  0  0  0  0  0  0  0  0
  -18.8160  -31.3850   55.8630 H   0  0  0  0  0  0  0  0  0  0  0  0
  -16.0410  -27.4970   55.4270 C   0  0  0  0  0  0  0  0  0  0  0  0
  -15.1500  -26.4250   55.9820 F   0  0  0  0  0  0  0  0  0  0  0  0
  -16.8170  -26.4610   54.6700 F   0  0  0  0  0  0  0  0  0  0  0  0
  -15.2650  -28.5330   56.1850 F   0  0  0  0  0  0  0  0  0  0  0  0
  -23.4150  -32.3150   52.2410 C   0  0  0  0  0  0  0  0  0  0  0  0
  -23.8220  -31.3570   52.4870 H   0  0  0  0  0  0  0  0  0  0  0  0
  -24.0510  -33.0800   51.8450 H   0  0  0  0  0  0  0  0  0  0  0  0
  -24.4570  -32.1210   52.0920 H   0  0  0  0  0  0  0  0  0  0  0  0
  -21.6340  -30.1700   53.3490 C   0  0  0  0  0  2  0  0  0  0  0  0
  -21.6820  -29.0860   52.3130 O   0  0  0  0  0  1  0  0  0  0  0  0
  -22.1560  -29.9110   54.7310 N   0  0  0  0  0  0  0  0  0  0  0  0
  -22.1250  -30.6220   55.4100 H   0  0  0  0  0  0  0  0  0  0  0  0
  -22.7260  -28.5670   55.0770 C   0  0  0  0  0  0  0  0  0  0  0  0
  -24.2050  -28.3340   54.9880 C   0  0  0  0  0  0  0  0  0  0  0  0
  -24.7750  -26.9910   55.3340 C   0  0  0  0  0  0  0  0  0  0  0  0
  -23.8660  -25.8800   55.7700 C   0  0  0  0  0  0  0  0  0  0  0  0
  -24.1370  -24.4600   56.1720 N   0  0  0  0  0  0  0  0  0  0  0  0
  -22.8250  -23.8160   56.5100 N   0  0  0  0  0  0  0  0  0  0  0  0
  -21.7440  -24.8380   56.3170 C   0  0  0  0  0  0  0  0  0  0  0  0
  -22.3870  -26.1130   55.8600 C   0  0  0  0  0  0  0  0  0  0  0  0
  -21.8170  -27.4570   55.5140 C   0  0  0  0  0  0  0  0  0  0  0  0
  -24.8310  -29.0980   54.6880 H   0  0  0  0  0  0  0  0  0  0  0  0
  -25.7930  -26.8300   55.2730 H   0  0  0  0  0  0  0  0  0  0  0  0
  -25.0200  -24.0280   56.2080 H   0  0  0  0  0  0  0  0  0  0  0  0
  -20.7990  -27.6170   55.5750 H   0  0  0  0  0  0  0  0  0  0  0  0
  -20.2760  -24.6220   56.5420 C   0  0  0  0  0  0  0  0  0  0  0  0
  -19.9200  -23.6670   56.8710 H   0  0  0  0  0  0  0  0  0  0  0  0
  -19.5860  -25.4220   56.3740 H   0  0  0  0  0  0  0  0  0  0  0  0
  -19.2300  -24.4680   56.7020 H   0  0  0  0  0  0  0  0  0  0  0  0
  3  8  1  0
  3 12  1  0
  4  9  1  0
  4  3  1  0
  7  1  2  0
 10  4  1  0
 11  7  1  0
 12 17  1  0
 13 14  1  0
 13 12  2  0
 14 15  2  0
 15 22  1  0
 15 16  1  0
 16 20  1  0
 17 16  2  0
 17 21  1  0
 18 13  1  0
 19 14  1  0
 22 23  1  0
 22 25  1  0
 24 22  1  0
 26  1  1  0
 26 27  1  0
 28 26  1  0
 29 26  1  0
 30 32  1  0
 31 30  1  0
 32 34  1  0
 32 33  1  0
 34 42  1  0
 35 34  2  0
 35 36  1  0
 36 37  2  0
 37 41  1  0
 37 38  1  0
 38 45  1  0
 38 39  1  0
 40 39  2  0
 40 47  1  0
 41 40  1  0
 42 46  1  0
 42 41  2  0
 43 35  1  0
 44 36  1  0
 47 50  1  0
 47 48  1  0
 49 47  1  0
M  END
>  <minimizedAffinity>  (197) 
-9.81171608

$$$$

     RDKit          3D

 54 57  0  0  0  0  0  0  0  0999 V2000
  -19.6490  -27.9440   54.3470 N   0  0  0  0  0  0  0  0  0  0  0  0
  -20.0230  -26.7160   55.1220 C   0  0  0  0  0  0  0  0  0  0  0  0
  -19.0700  -25.7070   55.6910 C   0  0  0  0  0  0  0  0  0  0  0  0
  -17.5740  -25.7500   55.5840 O   0  0  0  0  0  0  0  0  0  0  0  0
  -19.8740  -24.6480   56.3850 N   0  0  0  0  0  0  0  0  0  0  0  0
  -21.3250  -25.0020   56.2450 C   0  0  0  0  0  0  0  0  0  0  0  0
  -22.5740  -24.3260   56.7280 C   0  0  0  0  0  0  0  0  0  0  0  0
  -23.9150  -24.9280   56.4300 C   0  0  0  0  0  0  0  0  0  0  0  0
  -24.0080  -26.2060   55.6500 C   0  0  0  0  0  0  0  0  0  0  0  0
  -22.7590  -26.8820   55.1670 C   0  0  0  0  0  0  0  0  0  0  0  0
  -21.4170  -26.2800   55.4650 C   0  0  0  0  0  0  0  0  0  0  0  0
  -19.5130  -23.8590   56.8500 H   0  0  0  0  0  0  0  0  0  0  0  0
  -22.5110  -23.4470   57.2650 H   0  0  0  0  0  0  0  0  0  0  0  0
  -24.7750  -24.4630   56.7620 H   0  0  0  0  0  0  0  0  0  0  0  0
  -22.8220  -27.7610   54.6310 H   0  0  0  0  0  0  0  0  0  0  0  0
  -25.3490  -26.8080   55.3520 C   0  0  0  0  0  0  0  0  0  0  0  0
  -25.4390  -28.1820   54.7590 O   0  0  0  0  0  0  0  0  0  0  0  0
  -26.6000  -26.0350   55.6480 N   0  0  0  0  0  0  0  0  0  0  0  0
  -26.5410  -25.1330   56.0370 H   0  0  0  0  0  0  0  0  0  0  0  0
  -27.9410  -26.6370   55.3500 C   0  0  0  0  0  0  0  0  0  0  0  0
  -28.2310  -26.8240   54.3370 H   0  0  0  0  0  0  0  0  0  0  0  0
  -28.8980  -27.0660   55.1380 H   0  0  0  0  0  0  0  0  0  0  0  0
  -28.8770  -26.9760   56.4730 C   0  0  0  0  0  0  0  0  0  0  0  0
  -29.1590  -26.2240   57.1800 H   0  0  0  0  0  0  0  0  0  0  0  0
  -29.5440  -27.2180   57.2730 H   0  0  0  0  0  0  0  0  0  0  0  0
  -29.4170  -28.3690   56.6040 C   0  0  0  0  0  0  0  0  0  0  0  0
  -30.3480  -28.6280   56.1430 H   0  0  0  0  0  0  0  0  0  0  0  0
  -29.8020  -29.3630   56.6970 H   0  0  0  0  0  0  0  0  0  0  0  0
  -28.6530  -29.4000   57.3800 N   0  0  0  0  0  0  0  0  0  0  0  0
  -28.8700  -29.7600   58.8210 C   0  0  0  0  0  0  0  0  0  0  0  0
  -27.8880  -30.8340   59.1830 C   0  0  0  0  0  0  0  0  0  0  0  0
  -27.0640  -31.1380   57.9670 N   0  0  0  0  0  0  0  0  0  0  0  0
  -27.5360  -30.2520   56.8530 C   0  0  0  0  0  0  0  0  0  0  0  0
  -29.5730  -29.3420   59.4510 H   0  0  0  0  0  0  0  0  0  0  0  0
  -27.7960  -31.2860   60.1070 H   0  0  0  0  0  0  0  0  0  0  0  0
  -27.1590  -30.2310   55.8930 H   0  0  0  0  0  0  0  0  0  0  0  0
  -18.2060  -28.2510   54.0810 N   0  0  0  0  0  0  0  0  0  0  0  0
  -17.7330  -27.7960   53.3460 H   0  0  0  0  0  0  0  0  0  0  0  0
  -16.0340  -31.2540   56.6350 C   0  0  0  0  0  0  0  0  0  0  0  0
  -15.3330  -30.0070   56.1840 C   0  0  0  0  0  0  0  0  0  0  0  0
  -16.0570  -29.0050   55.3320 C   0  0  0  0  0  0  0  0  0  0  0  0
  -17.4820  -29.2530   54.9320 C   0  0  0  0  0  0  0  0  0  0  0  0
  -18.1820  -30.5000   55.3830 C   0  0  0  0  0  0  0  0  0  0  0  0
  -17.4580  -31.5010   56.2340 C   0  0  0  0  0  0  0  0  0  0  0  0
  -14.3530  -29.8360   56.4590 H   0  0  0  0  0  0  0  0  0  0  0  0
  -15.5750  -28.1480   55.0220 H   0  0  0  0  0  0  0  0  0  0  0  0
  -19.1630  -30.6700   55.1070 H   0  0  0  0  0  0  0  0  0  0  0  0
  -17.9400  -32.3590   56.5450 H   0  0  0  0  0  0  0  0  0  0  0  0
  -15.3100  -32.2550   57.4850 S   0  0  1  0  0  0  0  0  0  0  0  0
  -16.5700  -33.0600   57.6080 O   0  0  0  0  0  0  0  0  0  0  0  0
  -14.0510  -31.4500   57.3630 O   0  0  0  0  0  0  0  0  0  0  0  0
  -14.5880  -33.2560   58.3370 N   0  0  0  0  0  0  0  0  0  0  0  0
  -15.0840  -34.0710   58.6980 H   0  0  0  0  0  0  0  0  0  0  0  0
  -13.6000  -33.1220   58.5540 H   0  0  0  0  0  0  0  0  0  0  0  0
  1  2  2  0
  2 11  1  0
  2  3  1  0
  3  5  1  0
  4  3  2  0
  5 12  1  0
  6  5  1  0
  6  7  1  0
  7 13  1  0
  8  7  2  0
  8 14  1  0
  9  8  1  0
 10 11  1  0
 10  9  2  0
 11  6  2  0
 15 10  1  0
 16 18  1  0
 16  9  1  0
 17 16  2  0
 18 19  1  0
 20 18  1  0
 20 23  1  0
 21 20  1  0
 22 20  1  0
 23 26  1  0
 23 24  1  0
 23 25  1  0
 26 28  1  0
 26 29  1  0
 27 26  1  0
 29 30  1  0
 30 31  2  0
 30 34  1  0
 31 35  1  0
 32 31  1  0
 33 29  1  0
 33 32  2  0
 36 33  1  0
 37  1  1  0
 37 42  1  0
 38 37  1  0
 39 49  1  0
 40 45  1  0
 40 39  2  0
 41 40  1  0
 42 41  2  0
 42 43  1  0
 43 44  2  0
 44 48  1  0
 44 39  1  0
 46 41  1  0
 47 43  1  0
 49 50  2  0
 49 52  1  0
 51 49  2  0
 52 54  1  0
 52 53  1  0
M  END
>  <minimizedAffinity>  (198) 
-10.1332026

$$$$

     RDKit          3D

 51 48  0  0  0  0  0  0  0  0999 V2000
  -16.4520  -29.4360   55.6090 C   0  0  0  0  0  0  0  0  0  0  0  0
  -15.0930  -29.4690   56.2430 N   0  0  0  0  0  0  0  0  0  0  0  0
  -14.4330  -30.7600   55.8570 C   0  0  0  0  0  0  0  0  0  0  0  0
  -15.3840  -31.5250   54.9850 N   0  0  0  0  0  0  0  0  0  0  0  0
  -16.6320  -30.7070   54.8310 C   0  0  0  0  0  0  0  0  0  0  0  0
  -15.2170  -32.4090   54.5840 H   0  0  0  0  0  0  0  0  0  0  0  0
  -20.6760  -23.7380   56.1620 N   0  0  0  0  0  0  0  0  0  0  0  0
  -20.6740  -25.2360   56.1020 C   0  0  0  0  0  0  0  0  0  0  0  0
  -21.8810  -26.1240   56.1600 C   0  0  0  0  0  3  0  0  0  0  0  0
  -21.4160  -27.5470   56.0680 C   0  0  0  0  0  2  0  0  0  0  0  0
  -19.9200  -27.5390   55.9520 C   0  0  0  0  0  3  0  0  0  0  0  0
  -18.9170  -28.6470   55.8310 C   0  0  0  0  0  0  0  0  0  0  0  0
  -17.4550  -28.3280   55.7300 C   0  0  0  0  0  0  0  0  0  0  0  0
  -16.9960  -26.9000   55.7520 C   0  0  0  0  0  0  0  0  0  0  0  0
  -17.9990  -25.7920   55.8730 C   0  0  0  0  0  0  0  0  0  0  0  0
  -19.4610  -26.1110   55.9740 C   0  0  0  0  0  0  0  0  0  0  0  0
  -22.8960  -25.7990   56.2520 H   0  0  0  0  0  0  0  0  0  0  0  0
  -22.6340  -26.8830   56.1880 H   0  0  0  0  0  0  0  0  0  0  0  0
  -22.0410  -28.4150   56.0810 H   0  0  0  0  0  0  0  0  0  0  0  0
  -20.9290  -28.4970   55.9920 H   0  0  0  0  0  0  0  0  0  0  0  0
  -19.2330  -29.6300   55.8160 H   0  0  0  0  0  0  0  0  0  0  0  0
  -15.9900  -26.6800   55.6830 H   0  0  0  0  0  0  0  0  0  0  0  0
  -17.6830  -24.8090   55.8880 H   0  0  0  0  0  0  0  0  0  0  0  0
  -21.9730  -22.9950   56.2920 O   0  0  0  0  0  0  0  0  0  0  0  0
  -21.9760  -22.0590   56.3290 H   0  0  0  0  0  0  0  0  0  0  0  0
  -13.0620  -31.2070   56.2720 C   0  0  0  0  0  2  0  0  0  0  0  0
  -12.8320  -31.7360   57.6560 C   0  0  0  0  0  2  0  0  0  0  0  0
  -11.4630  -32.1830   58.0710 C   0  0  0  0  0  2  0  0  0  0  0  0
  -10.3210  -32.1010   57.1000 N   0  0  0  0  0  2  0  0  0  0  0  0
  -10.5510  -31.5730   55.7160 C   0  0  0  0  0  3  0  0  0  0  0  0
  -11.9210  -31.1260   55.3000 C   0  0  0  0  0  2  0  0  0  0  0  0
  -12.0850  -31.5260   56.5670 H   0  0  0  0  0  0  0  0  0  0  0  0
  -13.6470  -31.7930   58.3490 H   0  0  0  0  0  0  0  0  0  0  0  0
  -12.6690  -32.1120   58.6440 H   0  0  0  0  0  0  0  0  0  0  0  0
  -11.2980  -32.5590   59.0590 H   0  0  0  0  0  0  0  0  0  0  0  0
  -10.4850  -32.5020   58.3670 H   0  0  0  0  0  0  0  0  0  0  0  0
   -9.3890  -32.4060   57.3830 H   0  0  0  0  0  0  0  0  0  0  0  0
   -9.7370  -31.5150   55.0230 H   0  0  0  0  0  0  0  0  0  0  0  0
  -10.7140  -31.1970   54.7270 H   0  0  0  0  0  0  0  0  0  0  0  0
  -12.0850  -30.7490   54.3130 H   0  0  0  0  0  0  0  0  0  0  0  0
  -12.8990  -30.8070   55.0050 H   0  0  0  0  0  0  0  0  0  0  0  0
  -17.8460  -31.0910   54.0400 C   0  0  0  0  0  0  0  0  0  0  0  0
  -18.7480  -32.1830   54.5310 C   0  0  0  0  0  0  0  0  0  0  0  0
  -19.9630  -32.5670   53.7390 C   0  0  0  0  0  0  0  0  0  0  0  0
  -20.2750  -31.8580   52.4550 N   0  0  0  0  0  0  0  0  0  0  0  0
  -19.3730  -30.7660   51.9630 C   0  0  0  0  0  0  0  0  0  0  0  0
  -18.1590  -30.3820   52.7550 C   0  0  0  0  0  0  0  0  0  0  0  0
  -18.5330  -32.6720   55.4150 H   0  0  0  0  0  0  0  0  0  0  0  0
  -20.5830  -33.3200   54.0770 H   0  0  0  0  0  0  0  0  0  0  0  0
  -19.5880  -30.2770   51.0790 H   0  0  0  0  0  0  0  0  0  0  0  0
  -17.5390  -29.6300   52.4160 H   0  0  0  0  0  0  0  0  0  0  0  0
  1 13  1  0
  1  2  1  0
  3  2  2  0
  3 26  1  0
  4  3  1  0
  5  4  1  0
  5  1  2  0
  6  4  1  0
  7 24  1  0
  8  9  1  0
  8  7  2  0
  9 18  1  0
  9 17  1  0
 10 19  1  0
 11 16  1  0
 12 11  2  0
 13 14  2  0
 13 12  1  0
 14 15  1  0
 15 23  1  0
 15 16  2  0
 16  8  1  0
 20 10  1  0
 21 12  1  0
 22 14  1  0
 24 25  1  0
 26 32  1  0
 27 33  1  0
 27 34  1  0
 28 36  1  0
 28 35  1  0
 29 37  1  0
 30 29  1  0
 38 30  1  0
 39 30  1  0
 40 31  1  0
 41 31  1  0
 42 43  1  0
 42  5  1  0
 43 48  1  0
 44 49  1  0
 44 43  2  0
 45 44  1  0
 46 45  2  0
 46 47  1  0
 47 42  2  0
 50 46  1  0
 51 47  1  0
M  END
>  <minimizedAffinity>  (199) 
-9.30411053

$$$$

     RDKit          3D

 44 48  0  0  0  0  0  0  0  0999 V2000
  -20.3940  -28.9440   54.3460 C   0  0  0  0  0  0  0  0  0  0  0  0
  -21.7710  -28.3490   54.3000 N   0  0  0  0  0  0  0  0  0  0  0  0
  -21.7300  -27.0320   55.0180 N   0  0  0  0  0  0  0  0  0  0  0  0
  -22.7880  -26.0040   55.2890 N   0  0  0  0  0  0  0  0  0  0  0  0
  -22.4450  -24.7580   56.0500 C   0  0  0  0  0  0  0  0  0  0  0  0
  -21.0440  -24.5390   56.5390 C   0  0  0  0  0  0  0  0  0  0  0  0
  -19.9860  -25.5670   56.2680 C   0  0  0  0  0  0  0  0  0  0  0  0
  -20.3290  -26.8140   55.5070 C   0  0  0  0  0  0  0  0  0  0  0  0
  -19.5030  -27.9950   55.0920 C   0  0  0  0  0  0  0  0  0  0  0  0
  -23.1730  -24.0500   56.2370 H   0  0  0  0  0  0  0  0  0  0  0  0
  -20.8090  -23.6810   57.0620 H   0  0  0  0  0  0  0  0  0  0  0  0
  -19.0220  -25.4170   56.6040 H   0  0  0  0  0  0  0  0  0  0  0  0
  -18.7420  -34.1960   51.9630 Cl  0  0  0  0  0  0  0  0  0  0  0  0
  -19.1550  -32.8830   52.5590 C   0  0  0  0  0  0  0  0  0  0  0  0
  -18.6580  -31.6000   51.9630 C   0  0  0  0  0  0  0  0  0  0  0  0
  -19.0700  -30.2870   52.5590 C   0  0  0  0  0  0  0  0  0  0  0  0
  -19.9810  -30.2570   53.7500 C   0  0  0  0  0  0  0  0  0  0  0  0
  -20.4790  -31.5400   54.3460 C   0  0  0  0  0  0  0  0  0  0  0  0
  -20.0660  -32.8530   53.7500 C   0  0  0  0  0  0  0  0  0  0  0  0
  -18.0310  -31.6200   51.1430 H   0  0  0  0  0  0  0  0  0  0  0  0
  -18.7280  -29.4030   52.1490 H   0  0  0  0  0  0  0  0  0  0  0  0
  -21.1060  -31.5200   55.1660 H   0  0  0  0  0  0  0  0  0  0  0  0
  -20.4090  -33.7370   54.1600 H   0  0  0  0  0  0  0  0  0  0  0  0
  -18.0430  -28.1930   55.3730 C   0  0  0  0  0  0  0  0  0  0  0  0
  -17.1030  -27.0260   55.3140 C   0  0  0  0  0  0  0  0  0  0  0  0
  -15.6440  -27.2230   55.5950 C   0  0  0  0  0  0  0  0  0  0  0  0
  -15.1240  -28.5880   55.9350 N   0  0  0  0  0  0  0  0  0  0  0  0
  -16.0630  -29.7560   55.9950 C   0  0  0  0  0  0  0  0  0  0  0  0
  -15.5440  -31.1210   56.3350 N   0  0  0  0  0  0  0  0  0  0  0  0
  -17.5230  -29.5580   55.7130 N   0  0  0  0  0  0  0  0  0  0  0  0
  -17.4610  -26.0860   55.0800 H   0  0  0  0  0  0  0  0  0  0  0  0
  -14.9970  -26.4200   55.5540 H   0  0  0  0  0  0  0  0  0  0  0  0
  -16.1600  -31.8870   56.3740 H   0  0  0  0  0  0  0  0  0  0  0  0
  -14.0830  -31.3190   56.6160 C   0  0  0  0  0  0  0  0  0  0  0  0
  -13.1050  -31.3960   55.4820 C   0  0  0  0  0  0  0  0  0  0  0  0
  -11.6450  -31.5940   55.7630 C   0  0  0  0  0  0  0  0  0  0  0  0
  -11.1630  -31.7160   57.1790 C   0  0  0  0  0  0  0  0  0  0  0  0
  -12.1410  -31.6390   58.3120 C   0  0  0  0  0  0  0  0  0  0  0  0
  -13.6020  -31.4410   58.0320 C   0  0  0  0  0  0  0  0  0  0  0  0
  -13.4360  -31.3120   54.5080 H   0  0  0  0  0  0  0  0  0  0  0  0
  -10.9720  -31.6470   54.9830 H   0  0  0  0  0  0  0  0  0  0  0  0
  -10.1580  -31.8520   57.3720 H   0  0  0  0  0  0  0  0  0  0  0  0
  -11.8100  -31.7230   59.2860 H   0  0  0  0  0  0  0  0  0  0  0  0
  -14.2750  -31.3880   58.8120 H   0  0  0  0  0  0  0  0  0  0  0  0
  1  9  1  0
  2  1  2  0
  2  3  1  0
  3  4  1  0
  3  8  1  0
  4  5  2  0
  5 10  1  0
  5  6  1  0
  6 11  1  0
  7  6  2  0
  7 12  1  0
  8  7  1  0
  9 24  1  0
  9  8  2  0
 13 14  1  0
 14 19  1  0
 15 16  1  0
 15 14  2  0
 16 17  2  0
 17  1  1  0
 17 18  1  0
 18 22  1  0
 19 23  1  0
 19 18  2  0
 20 15  1  0
 21 16  1  0
 24 30  2  0
 25 24  1  0
 25 26  2  0
 26 27  1  0
 27 28  2  0
 28 29  1  0
 29 33  1  0
 29 34  1  0
 30 28  1  0
 31 25  1  0
 32 26  1  0
 34 39  1  0
 35 36  1  0
 35 34  2  0
 36 37  2  0
 37 42  1  0
 37 38  1  0
 38 43  1  0
 39 38  2  0
 39 44  1  0
 40 35  1  0
 41 36  1  0
M  END
>  <minimizedAffinity>  (200) 
-8.34566784

$$$$

     RDKit          3D

 38 36  0  0  1  0  0  0  0  0999 V2000
  -21.7620  -27.9640   54.5330 C   0  0  0  0  0  3  0  0  0  0  0  0
  -23.1200  -27.3440   54.6800 N   0  0  0  0  0  2  0  0  0  0  0  0
  -22.9680  -26.0780   55.4690 C   0  0  0  0  0  1  0  0  0  0  0  0
  -21.5160  -25.9150   55.8100 N   0  0  0  0  0  0  0  0  0  0  0  0
  -20.7710  -27.0800   55.2320 C   0  0  0  0  0  0  0  0  0  0  0  0
  -21.3640  -24.6480   56.5990 C   0  0  0  0  0  3  0  0  0  0  0  0
  -22.7230  -24.0280   56.7460 C   0  0  0  0  0  2  0  0  0  0  0  0
  -23.7130  -24.9110   56.0470 C   0  0  0  0  0  2  0  0  0  0  0  0
  -20.4480  -24.2560   56.9890 H   0  0  0  0  0  0  0  0  0  0  0  0
  -21.4230  -23.7280   57.1440 H   0  0  0  0  0  0  0  0  0  0  0  0
  -22.9450  -23.1160   57.2590 H   0  0  0  0  0  0  0  0  0  0  0  0
  -23.7470  -23.7170   56.7620 H   0  0  0  0  0  0  0  0  0  0  0  0
  -24.7670  -24.7390   55.9750 H   0  0  0  0  0  0  0  0  0  0  0  0
  -24.2880  -25.6380   55.5130 H   0  0  0  0  0  0  0  0  0  0  0  0
  -19.2930  -27.3210   55.3340 C   0  0  0  0  0  0  0  0  0  0  0  0
  -18.3340  -26.1840   55.1470 C   0  0  0  0  0  0  0  0  0  0  0  0
  -16.8570  -26.4240   55.2490 C   0  0  0  0  0  0  0  0  0  0  0  0
  -16.3400  -27.8030   55.5380 C   0  0  0  0  0  3  0  0  0  0  0  0
  -17.3000  -28.9400   55.7240 C   0  0  0  0  0  0  0  0  0  0  0  0
  -18.7770  -28.6990   55.6220 C   0  0  0  0  0  0  0  0  0  0  0  0
  -16.5010  -30.1800   55.9970 O   0  0  0  0  0  0  0  0  0  0  0  0
  -15.0470  -29.8090   55.9780 C   0  0  0  0  0  3  0  0  0  0  0  0
  -14.9480  -28.3400   55.6950 O   0  0  0  0  0 15  0  0  0  0  0  0
  -18.6900  -25.2360   54.9480 H   0  0  0  0  0  0  0  0  0  0  0  0
  -16.1970  -25.6420   55.1210 H   0  0  0  0  0  0  0  0  0  0  0  0
  -19.4380  -29.4820   55.7510 H   0  0  0  0  0  0  0  0  0  0  0  0
  -14.2270  -30.4760   56.1390 H   0  0  0  0  0  0  0  0  0  0  0  0
  -14.0650  -29.3890   55.9330 H   0  0  0  0  0  0  0  0  0  0  0  0
  -20.8260  -31.8010   52.3760 C   0  0  0  0  0  0  0  0  0  0  0  0
  -20.1540  -30.5250   51.9630 C   0  0  0  0  0  0  0  0  0  0  0  0
  -20.4660  -29.2460   52.6820 C   0  0  0  0  0  0  0  0  0  0  0  0
  -21.4500  -29.2430   53.8140 C   0  0  0  0  0  0  0  0  0  0  0  0
  -22.1230  -30.5190   54.2260 N   0  0  0  0  0  0  0  0  0  0  0  0
  -21.8110  -31.7980   53.5070 C   0  0  0  0  0  0  0  0  0  0  0  0
  -20.6110  -32.6800   51.8810 H   0  0  0  0  0  0  0  0  0  0  0  0
  -19.4760  -30.5270   51.1840 H   0  0  0  0  0  0  0  0  0  0  0  0
  -20.0030  -28.3680   52.3980 H   0  0  0  0  0  0  0  0  0  0  0  0
  -22.2730  -32.6750   53.7910 H   0  0  0  0  0  0  0  0  0  0  0  0
  1  2  1  0
  1  5  1  0
  2  3  1  0
  4  6  1  0
  5 15  1  0
  5  4  2  0
  6  9  1  0
  6 10  1  0
  7 12  1  0
  7 11  1  0
 13  8  1  0
 14  8  1  0
 15 20  1  0
 16 17  1  0
 16 15  2  0
 17 18  2  0
 18 19  1  0
 19 21  1  0
 20 19  2  0
 20 26  1  0
 22 21  1  0
 22 27  1  0
 24 16  1  0
 25 17  1  0
 28 22  1  0
 29 34  1  0
 30 29  2  0
 30 31  1  0
 31 32  2  0
 32 33  1  0
 32  1  1  0
 34 38  1  0
 34 33  2  0
 35 29  1  0
 36 30  1  0
 37 31  1  0
M  END
>  <minimizedAffinity>  (201) 
-8.04165745

$$$$

     RDKit          3D

 42 44  0  0  0  0  0  0  0  0999 V2000
  -18.2650  -29.1620   53.7290 C   0  0  0  0  0  0  0  0  0  0  0  0
  -18.7660  -27.8470   54.2470 C   0  0  0  0  0  0  0  0  0  0  0  0
  -17.9600  -27.0820   55.2540 C   0  0  0  0  0  0  0  0  0  0  0  0
  -16.6530  -27.6310   55.7420 C   0  0  0  0  0  0  0  0  0  0  0  0
  -16.1510  -28.9460   55.2240 C   0  0  0  0  0  0  0  0  0  0  0  0
  -16.9580  -29.7120   54.2170 C   0  0  0  0  0  0  0  0  0  0  0  0
  -19.6660  -27.4690   53.9120 H   0  0  0  0  0  0  0  0  0  0  0  0
  -16.0980  -27.1040   56.4350 H   0  0  0  0  0  0  0  0  0  0  0  0
  -18.4610  -25.7660   55.7730 N   0  0  0  0  0  0  0  0  0  0  0  0
  -19.9350  -25.5380   55.9390 C   0  0  0  0  0  0  0  0  0  0  0  0
  -20.5810  -24.2810   56.4440 N   0  0  0  0  0  0  0  0  0  0  0  0
  -22.0650  -24.4930   56.4470 C   0  0  0  0  0  0  0  0  0  0  0  0
  -22.3370  -25.8800   55.9440 C   0  0  0  0  0  0  0  0  0  0  0  0
  -21.0210  -26.5250   55.6300 O   0  0  0  0  0  0  0  0  0  0  0  0
  -17.8240  -25.0530   56.0050 H   0  0  0  0  0  0  0  0  0  0  0  0
  -22.7750  -23.8050   56.7430 H   0  0  0  0  0  0  0  0  0  0  0  0
  -23.6890  -26.5110   55.7830 C   0  0  0  0  0  0  0  0  0  0  0  0
  -24.9270  -25.7100   56.0560 C   0  0  0  0  0  0  0  0  0  0  0  0
  -26.2790  -26.3400   55.8940 C   0  0  0  0  0  0  0  0  0  0  0  0
  -26.3920  -27.7720   55.4610 C   0  0  0  0  0  0  0  0  0  0  0  0
  -25.1530  -28.5730   55.1880 C   0  0  0  0  0  0  0  0  0  0  0  0
  -23.8010  -27.9420   55.3490 C   0  0  0  0  0  0  0  0  0  0  0  0
  -24.8490  -24.7250   56.3540 H   0  0  0  0  0  0  0  0  0  0  0  0
  -27.1310  -25.7890   56.0820 H   0  0  0  0  0  0  0  0  0  0  0  0
  -27.3220  -28.2050   55.3500 H   0  0  0  0  0  0  0  0  0  0  0  0
  -25.2310  -29.5570   54.8890 H   0  0  0  0  0  0  0  0  0  0  0  0
  -22.9500  -28.4930   55.1610 H   0  0  0  0  0  0  0  0  0  0  0  0
  -19.0720  -29.9280   52.7220 O   0  0  0  0  0  0  0  0  0  0  0  0
  -20.5620  -29.7660   52.6750 C   0  0  0  0  0  0  0  0  0  0  0  0
  -21.0500  -29.1040   53.3600 H   0  0  0  0  0  0  0  0  0  0  0  0
  -21.1370  -30.3120   51.9560 H   0  0  0  0  0  0  0  0  0  0  0  0
  -21.6250  -29.6500   52.6410 H   0  0  0  0  0  0  0  0  0  0  0  0
  -14.8440  -29.4960   55.7120 O   0  0  0  0  0  0  0  0  0  0  0  0
  -14.8220  -30.4990   56.8260 C   0  0  0  0  0  0  0  0  0  0  0  0
  -15.7380  -30.8230   57.2730 H   0  0  0  0  0  0  0  0  0  0  0  0
  -13.8890  -30.8920   57.1750 H   0  0  0  0  0  0  0  0  0  0  0  0
  -14.8050  -31.2150   57.6220 H   0  0  0  0  0  0  0  0  0  0  0  0
  -16.4560  -31.0270   53.6980 O   0  0  0  0  0  0  0  0  0  0  0  0
  -16.9250  -32.3070   54.3230 C   0  0  0  0  0  0  0  0  0  0  0  0
  -17.6170  -32.2830   55.1390 H   0  0  0  0  0  0  0  0  0  0  0  0
  -16.5670  -33.2460   53.9520 H   0  0  0  0  0  0  0  0  0  0  0  0
  -17.2590  -33.2210   54.7690 H   0  0  0  0  0  0  0  0  0  0  0  0
  1  6  2  0
  1  2  1  0
  2  3  2  0
  3  4  1  0
  3  9  1  0
  4  8  1  0
  5 33  1  0
  5  4  2  0
  6  5  1  0
  7  2  1  0
  9 10  1  0
  9 15  1  0
 10 11  2  0
 11 12  1  0
 12 16  1  0
 13 12  2  0
 14 10  1  0
 14 13  1  0
 17 13  1  0
 17 18  1  0
 18 23  1  0
 19 18  2  0
 19 24  1  0
 20 19  1  0
 21 22  1  0
 21 20  2  0
 22 17  2  0
 25 20  1  0
 26 21  1  0
 27 22  1  0
 28  1  1  0
 29 28  1  0
 29 30  1  0
 31 29  1  0
 32 29  1  0
 33 34  1  0
 34 36  1  0
 34 35  1  0
 34 37  1  0
 38  6  1  0
 38 39  1  0
 39 42  1  0
 39 40  1  0
 41 39  1  0
M  END
>  <minimizedAffinity>  (202) 
-7.55238247

$$$$

     RDKit          3D

 53 55  0  0  0  0  0  0  0  0999 V2000
  -20.2350  -30.5780   54.1120 C   0  0  0  0  0  0  0  0  0  0  0  0
  -19.4830  -29.4420   53.4860 C   0  0  0  0  0  0  0  0  0  0  0  0
  -18.0380  -29.2230   53.8240 C   0  0  0  0  0  3  0  0  0  0  0  0
  -17.3460  -30.1400   54.7880 N   0  0  0  0  0  0  0  0  0  0  0  0
  -18.0980  -31.2770   55.4140 C   0  0  0  0  0  0  0  0  0  0  0  0
  -17.4060  -32.1940   56.3780 N   0  0  0  0  0  0  0  0  0  0  0  0
  -19.5430  -31.4960   55.0760 N   0  0  0  0  0  2  0  0  0  0  0  0
  -19.9590  -28.8100   52.8230 H   0  0  0  0  0  0  0  0  0  0  0  0
  -17.5200  -28.4410   53.3930 H   0  0  0  0  0  0  0  0  0  0  0  0
  -17.9000  -32.9400   56.7890 H   0  0  0  0  0  0  0  0  0  0  0  0
  -15.9610  -31.9750   56.7160 C   0  0  0  0  0  0  0  0  0  0  0  0
  -14.9300  -31.9580   55.6260 C   0  0  0  0  0  0  0  0  0  0  0  0
  -13.4860  -31.7390   55.9640 C   0  0  0  0  0  0  0  0  0  0  0  0
  -13.0710  -31.5370   57.3920 C   0  0  0  0  0  3  0  0  0  0  0  0
  -14.1020  -31.5550   58.4810 C   0  0  0  0  0  0  0  0  0  0  0  0
  -15.5470  -31.7740   58.1430 C   0  0  0  0  0  0  0  0  0  0  0  0
  -13.6880  -31.3530   59.9090 O   0  0  0  0  0  0  0  0  0  0  0  0
  -12.2430  -31.1340   60.2470 C   0  0  0  0  0  3  0  0  0  0  0  0
  -11.2120  -31.1170   59.1570 C   0  0  0  0  0  2  0  0  0  0  0  0
  -11.6260  -31.3180   57.7300 O   0  0  0  0  0 15  0  0  0  0  0  0
  -15.2150  -32.0960   54.6440 H   0  0  0  0  0  0  0  0  0  0  0  0
  -12.7760  -31.7270   55.2150 H   0  0  0  0  0  0  0  0  0  0  0  0
  -16.2560  -31.7860   58.8930 H   0  0  0  0  0  0  0  0  0  0  0  0
  -11.9480  -30.9900   61.2660 H   0  0  0  0  0  0  0  0  0  0  0  0
  -11.2120  -30.9780   60.4880 H   0  0  0  0  0  0  0  0  0  0  0  0
  -10.1820  -30.9600   59.3990 H   0  0  0  0  0  0  0  0  0  0  0  0
  -10.4770  -31.1040   58.3800 H   0  0  0  0  0  0  0  0  0  0  0  0
  -22.7950  -29.8180   53.9930 C   0  0  0  0  0  0  0  0  0  0  0  0
  -24.0680  -30.4490   53.5120 N   0  0  0  0  0  0  0  0  0  0  0  0
  -23.7390  -31.8190   52.9960 N   0  0  0  0  0  0  0  0  0  0  0  0
  -24.5940  -32.8990   52.3990 N   0  0  0  0  0  0  0  0  0  0  0  0
  -23.9720  -34.1920   51.9650 C   0  0  0  0  0  0  0  0  0  0  0  0
  -22.4960  -34.4080   52.1270 C   0  0  0  0  0  0  0  0  0  0  0  0
  -21.6430  -33.3280   52.7230 C   0  0  0  0  0  0  0  0  0  0  0  0
  -22.2640  -32.0340   53.1580 C   0  0  0  0  0  0  0  0  0  0  0  0
  -21.6800  -30.7970   53.7740 C   0  0  0  0  0  0  0  0  0  0  0  0
  -24.5600  -34.9350   51.5540 H   0  0  0  0  0  0  0  0  0  0  0  0
  -22.0690  -35.2980   51.8280 H   0  0  0  0  0  0  0  0  0  0  0  0
  -20.6270  -33.4760   52.8350 H   0  0  0  0  0  0  0  0  0  0  0  0
  -22.3910  -25.7080   55.7790 C   0  0  0  0  0  0  0  0  0  0  0  0
  -23.4370  -25.9730   54.7360 C   0  0  0  0  0  0  0  0  0  0  0  0
  -23.5710  -27.3430   54.1410 C   0  0  0  0  0  0  0  0  0  0  0  0
  -22.6610  -28.4480   54.5880 C   0  0  0  0  0  0  0  0  0  0  0  0
  -21.6160  -28.1830   55.6320 C   0  0  0  0  0  0  0  0  0  0  0  0
  -21.4810  -26.8130   56.2270 C   0  0  0  0  0  0  0  0  0  0  0  0
  -24.0620  -25.2120   54.4290 H   0  0  0  0  0  0  0  0  0  0  0  0
  -24.2900  -27.5250   53.4230 H   0  0  0  0  0  0  0  0  0  0  0  0
  -20.9900  -28.9430   55.9390 H   0  0  0  0  0  0  0  0  0  0  0  0
  -20.7620  -26.6310   56.9450 H   0  0  0  0  0  0  0  0  0  0  0  0
  -22.1220  -22.9680   56.9710 F   0  0  0  0  0  0  0  0  0  0  0  0
  -22.2560  -24.3380   56.3750 C   0  0  0  0  0  0  0  0  0  0  0  0
  -20.7630  -24.4760   56.3560 F   0  0  0  0  0  0  0  0  0  0  0  0
  -23.7500  -24.2000   56.3950 F   0  0  0  0  0  0  0  0  0  0  0  0
  1  7  1  0
  2  3  1  0
  2  1  2  0
  3  4  1  0
  4  5  2  0
  5  6  1  0
  6 11  1  0
  6 10  1  0
  7  5  1  0
  8  2  1  0
  9  3  1  0
 11 16  1  0
 12 13  1  0
 12 11  2  0
 13 14  2  0
 14 15  1  0
 15 17  1  0
 16 15  2  0
 16 23  1  0
 17 18  1  0
 18 25  1  0
 18 24  1  0
 19 26  1  0
 21 12  1  0
 22 13  1  0
 27 19  1  0
 28 43  1  0
 29 28  2  0
 30 35  1  0
 30 29  1  0
 31 30  1  0
 32 33  1  0
 32 31  2  0
 33 34  2  0
 34 39  1  0
 34 35  1  0
 35 36  2  0
 36 28  1  0
 36  1  1  0
 37 32  1  0
 38 33  1  0
 40 45  1  0
 40 51  1  0
 41 40  2  0
 42 43  2  0
 42 41  1  0
 43 44  1  0
 44 48  1  0
 44 45  2  0
 45 49  1  0
 46 41  1  0
 47 42  1  0
 51 53  1  0
 51 50  1  0
 52 51  1  0
M  END
>  <minimizedAffinity>  (203) 
-9.65800858

$$$$

     RDKit          3D

 60 64  0  0  0  0  0  0  0  0999 V2000
  -22.8520  -28.7460   54.4930 C   0  0  0  0  0  0  0  0  0  0  0  0
  -23.4340  -27.4840   55.0560 C   0  0  0  0  0  0  0  0  0  0  0  0
  -24.9280  -27.5960   54.9970 N   0  0  0  0  0  0  0  0  0  0  0  0
  -25.2700  -28.9270   54.3980 C   0  0  0  0  0  0  0  0  0  0  0  0
  -23.9870  -29.6380   54.0860 N   0  0  0  0  0  0  0  0  0  0  0  0
  -16.2920  -30.7170   55.0700 C   0  0  0  0  0  0  0  0  0  0  0  0
  -17.0350  -31.1150   56.3100 C   0  0  0  0  0  0  0  0  0  0  0  0
  -18.4960  -30.8010   56.4430 C   0  0  0  0  0  0  0  0  0  0  0  0
  -19.2130  -30.0880   55.3350 C   0  0  0  0  0  0  0  0  0  0  0  0
  -20.6740  -29.7730   55.4680 C   0  0  0  0  0  0  0  0  0  0  0  0
  -21.3910  -29.0600   54.3600 C   0  0  0  0  0  0  0  0  0  0  0  0
  -20.6480  -28.6620   53.1200 C   0  0  0  0  0  0  0  0  0  0  0  0
  -19.1870  -28.9760   52.9870 C   0  0  0  0  0  0  0  0  0  0  0  0
  -18.4700  -29.6890   54.0950 C   0  0  0  0  0  0  0  0  0  0  0  0
  -17.0090  -30.0040   53.9620 C   0  0  0  0  0  0  0  0  0  0  0  0
  -16.5420  -31.6060   57.0730 H   0  0  0  0  0  0  0  0  0  0  0  0
  -19.0070  -31.0750   57.2970 H   0  0  0  0  0  0  0  0  0  0  0  0
  -21.1850  -30.0470   56.3220 H   0  0  0  0  0  0  0  0  0  0  0  0
  -21.1410  -28.1710   52.3570 H   0  0  0  0  0  0  0  0  0  0  0  0
  -18.6760  -28.7020   52.1330 H   0  0  0  0  0  0  0  0  0  0  0  0
  -16.4980  -29.7300   53.1080 H   0  0  0  0  0  0  0  0  0  0  0  0
  -14.8310  -31.0310   54.9370 O   0  0  0  0  0  0  0  0  0  0  0  0
  -13.9050  -30.7950   56.0930 C   0  0  0  0  0  0  0  0  0  0  0  0
  -14.2860  -30.4020   57.0130 H   0  0  0  0  0  0  0  0  0  0  0  0
  -12.8630  -31.0200   55.9980 H   0  0  0  0  0  0  0  0  0  0  0  0
  -13.2440  -30.6270   56.9180 H   0  0  0  0  0  0  0  0  0  0  0  0
  -22.6580  -26.3140   55.5860 C   0  0  0  0  0  0  0  0  0  0  0  0
  -23.2970  -24.9580   55.6530 C   0  0  0  0  0  0  0  0  0  0  0  0
  -22.5210  -23.7890   56.1830 C   0  0  0  0  0  0  0  0  0  0  0  0
  -21.1060  -23.9750   56.6440 N   0  0  0  0  0  0  0  0  0  0  0  0
  -20.4670  -25.3310   56.5760 C   0  0  0  0  0  0  0  0  0  0  0  0
  -21.2430  -26.5000   56.0470 C   0  0  0  0  0  0  0  0  0  0  0  0
  -24.2700  -24.8310   55.3360 H   0  0  0  0  0  0  0  0  0  0  0  0
  -22.9610  -22.8570   56.2290 H   0  0  0  0  0  0  0  0  0  0  0  0
  -19.4930  -25.4580   56.8940 H   0  0  0  0  0  0  0  0  0  0  0  0
  -20.8030  -27.4320   56.0010 H   0  0  0  0  0  0  0  0  0  0  0  0
  -26.6530  -29.4560   54.1520 C   0  0  0  0  0  0  0  0  0  0  0  0
  -27.2700  -29.3370   52.7900 C   0  0  0  0  0  0  0  0  0  0  0  0
  -28.6530  -29.8660   52.5460 C   0  0  0  0  0  0  0  0  0  0  0  0
  -29.4170  -30.5120   53.6620 C   0  0  0  0  0  0  0  0  0  0  0  0
  -28.7990  -30.6310   55.0240 C   0  0  0  0  0  0  0  0  0  0  0  0
  -27.4170  -30.1030   55.2690 C   0  0  0  0  0  0  0  0  0  0  0  0
  -26.7440  -28.8920   52.0230 H   0  0  0  0  0  0  0  0  0  0  0  0
  -29.0780  -29.7840   51.6080 H   0  0  0  0  0  0  0  0  0  0  0  0
  -29.3250  -31.0760   55.7920 H   0  0  0  0  0  0  0  0  0  0  0  0
  -26.7990  -30.2210   56.6310 C   0  0  0  0  0  0  0  0  0  0  0  0
  -27.3450  -30.6830   57.4270 H   0  0  0  0  0  0  0  0  0  0  0  0
  -25.8130  -29.8440   56.8060 H   0  0  0  0  0  0  0  0  0  0  0  0
  -26.3590  -30.3060   57.6020 H   0  0  0  0  0  0  0  0  0  0  0  0
  -30.7990  -31.0410   53.4170 S   0  0  2  0  0  0  0  0  0  0  0  0
  -30.7900  -31.6910   54.7690 O   0  0  0  0  0  0  0  0  0  0  0  0
  -30.8080  -30.3900   52.0660 O   0  0  0  0  0  0  0  0  0  0  0  0
  -32.1810  -31.5690   53.1720 C   0  0  0  0  0  0  0  0  0  0  0  0
  -32.6800  -31.3560   52.2490 H   0  0  0  0  0  0  0  0  0  0  0  0
  -32.6690  -32.1590   53.9190 H   0  0  0  0  0  0  0  0  0  0  0  0
  -33.1680  -31.9460   52.9970 H   0  0  0  0  0  0  0  0  0  0  0  0
  -23.8600  -31.0020   53.4750 C   0  0  0  0  0  0  0  0  0  0  0  0
  -22.8920  -31.4190   53.2930 H   0  0  0  0  0  0  0  0  0  0  0  0
  -24.7380  -31.5580   53.2200 H   0  0  0  0  0  0  0  0  0  0  0  0
  -23.7700  -31.9750   53.0380 H   0  0  0  0  0  0  0  0  0  0  0  0
  1  2  2  0
  2 27  1  0
  3  2  1  0
  4  3  2  0
  5  4  1  0
  5  1  1  0
  6  7  1  0
  7  8  2  0
  7 16  1  0
  8 17  1  0
  9 10  1  0
  9  8  1  0
 10 18  1  0
 11  1  1  0
 11 10  2  0
 12 11  1  0
 13 12  2  0
 13 14  1  0
 14  9  2  0
 15 14  1  0
 15  6  2  0
 19 12  1  0
 20 13  1  0
 21 15  1  0
 22  6  1  0
 22 23  1  0
 23 26  1  0
 23 24  1  0
 25 23  1  0
 27 28  2  0
 27 32  1  0
 28 29  1  0
 29 34  1  0
 29 30  2  0
 31 30  1  0
 31 35  1  0
 32 31  2  0
 33 28  1  0
 36 32  1  0
 37  4  1  0
 37 42  1  0
 38 37  2  0
 39 38  1  0
 39 40  2  0
 40 41  1  0
 41 42  2  0
 41 45  1  0
 42 46  1  0
 43 38  1  0
 44 39  1  0
 46 48  1  0
 46 47  1  0
 46 49  1  0
 50 40  1  0
 50 51  2  0
 52 50  2  0
 53 50  1  0
 53 55  1  0
 54 53  1  0
 56 53  1  0
 57  5  1  0
 58 57  1  0
 59 57  1  0
 60 57  1  0
M  END
>  <minimizedAffinity>  (204) 
-8.0391407

$$$$

     RDKit          3D

 64 67  0  0  1  0  0  0  0  0999 V2000
  -22.5930  -33.7790   54.0860 C   0  0  0  0  0  0  0  0  0  0  0  0
  -23.9490  -34.2110   54.5590 C   0  0  0  0  0  0  0  0  0  0  0  0
  -25.1810  -33.5880   53.9720 C   0  0  0  0  0  0  0  0  0  0  0  0
  -25.0580  -32.5330   52.9130 C   0  0  0  0  0  0  0  0  0  0  0  0
  -23.7010  -32.1000   52.4400 C   0  0  0  0  0  0  0  0  0  0  0  0
  -22.4690  -32.7230   53.0270 C   0  0  0  0  0  0  0  0  0  0  0  0
  -24.0330  -34.9360   55.2880 H   0  0  0  0  0  0  0  0  0  0  0  0
  -23.6170  -31.3750   51.7120 H   0  0  0  0  0  0  0  0  0  0  0  0
  -21.1130  -32.2910   52.5540 N   0  0  0  0  0  0  0  0  0  0  0  0
  -20.4040  -31.1610   53.2410 C   0  0  0  0  0  0  0  0  0  0  0  0
  -21.0510  -30.4650   54.4000 N   0  0  0  0  0  0  0  0  0  0  0  0
  -20.3420  -29.3350   55.0880 C   0  0  0  0  0  3  0  0  0  0  0  0
  -18.9860  -28.9030   54.6150 C   0  0  0  0  0  0  0  0  0  0  0  0
  -18.0520  -27.8300   55.0910 C   0  0  0  0  0  0  0  0  0  0  0  0
  -16.8270  -27.8630   54.2250 C   0  0  0  0  0  0  0  0  0  0  0  0
  -17.0050  -28.9570   53.2140 N   0  0  0  0  0  0  0  0  0  0  0  0
  -18.3390  -29.5990   53.4550 C   0  0  0  0  0  0  0  0  0  0  0  0
  -19.0480  -30.7290   52.7680 N   0  0  0  0  0  2  0  0  0  0  0  0
  -20.6870  -32.7480   51.7930 H   0  0  0  0  0  0  0  0  0  0  0  0
  -18.2220  -27.1820   55.8760 H   0  0  0  0  0  0  0  0  0  0  0  0
  -16.0070  -27.2430   54.3100 H   0  0  0  0  0  0  0  0  0  0  0  0
  -16.3580  -29.2090   52.5150 H   0  0  0  0  0  0  0  0  0  0  0  0
  -20.9890  -28.6380   56.2480 N   0  0  0  0  0  0  0  0  0  0  0  0
  -21.0630  -29.0930   57.1160 H   0  0  0  0  0  0  0  0  0  0  0  0
  -21.5230  -27.2450   56.0820 C   0  0  0  0  0  0  0  0  0  0  0  0
  -20.8450  -26.0960   56.7670 C   0  0  0  0  0  0  0  0  0  0  0  0
  -21.3790  -24.7050   56.6020 C   0  0  0  0  0  0  0  0  0  0  0  0
  -22.5900  -24.4610   55.7520 C   0  0  0  0  0  0  0  0  0  0  0  0
  -23.2680  -25.6110   55.0670 C   0  0  0  0  0  0  0  0  0  0  0  0
  -24.4800  -25.3680   54.2160 F   0  0  0  0  0  0  0  0  0  0  0  0
  -22.7340  -27.0030   55.2320 C   0  0  0  0  0  0  0  0  0  0  0  0
  -20.0110  -26.2630   57.3530 H   0  0  0  0  0  0  0  0  0  0  0  0
  -20.9120  -23.9130   57.0730 H   0  0  0  0  0  0  0  0  0  0  0  0
  -22.9580  -23.5040   55.6380 H   0  0  0  0  0  0  0  0  0  0  0  0
  -23.4120  -28.1530   54.5470 C   0  0  0  0  0  0  0  0  0  0  0  0
  -24.0100  -29.2630   55.3600 N   0  0  0  0  0  0  0  0  0  0  0  0
  -23.4930  -28.1920   53.0500 O   0  0  0  0  0  0  0  0  0  0  0  0
  -24.4550  -30.0170   54.9100 H   0  0  0  0  0  0  0  0  0  0  0  0
  -23.9570  -29.2370   56.3430 H   0  0  0  0  0  0  0  0  0  0  0  0
  -26.5380  -34.0210   54.4460 C   0  0  0  0  0  0  0  0  0  0  0  0
  -27.4160  -33.5770   54.0280 H   0  0  0  0  0  0  0  0  0  0  0  0
  -26.6250  -34.7730   55.2010 H   0  0  0  0  0  0  0  0  0  0  0  0
  -27.5050  -34.3290   54.7830 H   0  0  0  0  0  0  0  0  0  0  0  0
  -26.2900  -31.9110   52.3270 N   0  0  0  0  0  0  0  0  0  0  0  0
  -26.9770  -30.7880   53.0460 C   0  0  0  0  0  0  0  0  0  0  0  0
  -26.4310  -30.2870   54.3510 O   0  0  0  0  0  0  0  0  0  0  0  0
  -26.6480  -32.2390   51.4710 H   0  0  0  0  0  0  0  0  0  0  0  0
  -28.2090  -30.1650   52.4610 C   0  0  0  0  0  0  0  0  0  0  0  0
  -28.1270  -29.2900   51.8490 H   0  0  0  0  0  0  0  0  0  0  0  0
  -29.0880  -29.7200   52.0430 H   0  0  0  0  0  0  0  0  0  0  0  0
  -29.5560  -30.7660   52.7320 N   0  0  0  0  0  0  0  0  0  0  0  0
  -30.4520  -30.1620   53.7730 C   0  0  0  0  0  0  0  0  0  0  0  0
  -30.1300  -29.3020   54.3220 H   0  0  0  0  0  0  0  0  0  0  0  0
  -31.4120  -30.5910   53.9660 H   0  0  0  0  0  0  0  0  0  0  0  0
  -31.0900  -29.7310   54.5160 H   0  0  0  0  0  0  0  0  0  0  0  0
  -30.0080  -31.9720   51.9630 C   0  0  0  0  0  0  0  0  0  0  0  0
  -30.9680  -32.4010   52.1560 H   0  0  0  0  0  0  0  0  0  0  0  0
  -29.3680  -32.4030   51.2200 H   0  0  0  0  0  0  0  0  0  0  0  0
  -30.3300  -32.8320   51.4140 H   0  0  0  0  0  0  0  0  0  0  0  0
  -21.3600  -34.4000   54.6720 O   0  0  0  0  0  0  0  0  0  0  0  0
  -20.6890  -35.5420   53.9660 C   0  0  0  0  0  0  0  0  0  0  0  0
  -21.0890  -35.9120   53.0460 H   0  0  0  0  0  0  0  0  0  0  0  0
  -19.8090  -35.9860   54.3840 H   0  0  0  0  0  0  0  0  0  0  0  0
  -20.2100  -36.3560   53.4630 H   0  0  0  0  0  0  0  0  0  0  0  0
  1  2  1  0
  1 60  1  0
  2  7  1  0
  3 40  1  0
  3  2  2  0
  4  3  1  0
  5  4  2  0
  5  6  1  0
  6  1  2  0
  8  5  1  0
  9  6  1  0
  9 10  1  0
 10 11  2  0
 11 12  1  0
 12 23  1  0
 13 12  1  0
 13 14  1  0
 14 20  1  0
 15 21  1  0
 15 14  2  0
 16 17  1  0
 16 15  1  0
 17 13  2  0
 18 10  1  0
 18 17  1  0
 19  9  1  0
 22 16  1  0
 23 24  1  0
 25 23  1  0
 25 26  1  0
 26 32  1  0
 27 26  2  0
 27 33  1  0
 28 27  1  0
 29 31  1  0
 29 28  2  0
 30 29  1  0
 31 25  2  0
 34 28  1  0
 35 31  1  0
 35 36  1  0
 36 39  1  0
 37 35  2  0
 38 36  1  0
 40 43  1  0
 40 42  1  0
 41 40  1  0
 44  4  1  0
 44 45  1  0
 45 46  2  0
 47 44  1  0
 48 51  1  0
 48 45  1  0
 49 48  1  0
 50 48  1  0
 51 52  1  0
 52 54  1  0
 52 53  1  0
 52 55  1  0
 56 57  1  0
 56 51  1  0
 58 56  1  0
 59 56  1  0
 61 63  1  0
 61 60  1  0
 62 61  1  0
 64 61  1  0
M  END
>  <minimizedAffinity>  (205) 
-7.95658493

$$$$

     RDKit          3D

 51 51  0  0  0  0  0  0  0  0999 V2000
  -17.4730  -30.0360   55.0290 C   0  0  0  0  0  3  0  0  0  0  0  0
  -18.7890  -29.8880   55.7330 C   0  0  0  0  0  0  0  0  0  0  0  0
  -19.2830  -28.5250   56.1200 C   0  0  0  0  0  0  0  0  0  0  0  0
  -18.4610  -27.3120   55.8030 C   0  0  0  0  0  0  0  0  0  0  0  0
  -17.1440  -27.4610   55.0980 C   0  0  0  0  0  0  0  0  0  0  0  0
  -16.6510  -28.8240   54.7110 C   0  0  0  0  0  0  0  0  0  0  0  0
  -19.3550  -30.7240   55.9520 H   0  0  0  0  0  0  0  0  0  0  0  0
  -20.1880  -28.4230   56.6050 H   0  0  0  0  0  0  0  0  0  0  0  0
  -16.5790  -26.6260   54.8800 H   0  0  0  0  0  0  0  0  0  0  0  0
  -15.7460  -28.9260   54.2260 H   0  0  0  0  0  0  0  0  0  0  0  0
  -18.9540  -25.9500   56.1900 N   0  0  0  0  0  0  0  0  0  0  0  0
  -20.4220  -25.6440   56.1490 C   0  0  0  0  0  0  0  0  0  0  0  0
  -20.9160  -24.2820   56.5360 N   0  0  0  0  0  0  0  0  0  0  0  0
  -22.3830  -23.9760   56.4960 C   0  0  0  0  0  0  0  0  0  0  0  0
  -23.3580  -25.0330   56.0690 C   0  0  0  0  0  0  0  0  0  0  0  0
  -22.8640  -26.3960   55.6820 C   0  0  0  0  0  0  0  0  0  0  0  0
  -21.3970  -26.7010   55.7220 N   0  0  0  0  0  0  0  0  0  0  0  0
  -18.3150  -25.2550   56.4700 H   0  0  0  0  0  0  0  0  0  0  0  0
  -22.7230  -23.0390   56.7620 H   0  0  0  0  0  0  0  0  0  0  0  0
  -24.3680  -24.8230   56.0410 H   0  0  0  0  0  0  0  0  0  0  0  0
  -23.8390  -27.4520   55.2550 C   0  0  0  0  0  0  0  0  0  0  0  0
  -23.4910  -28.7910   54.6740 C   0  0  0  0  0  0  0  0  0  0  0  0
  -24.7700  -29.5230   54.3930 N   0  0  0  0  0  0  0  0  0  0  0  0
  -25.9090  -28.6360   54.8010 N   0  0  0  0  0  0  0  0  0  0  0  0
  -27.3960  -28.8280   54.7560 N   0  0  0  0  0  0  0  0  0  0  0  0
  -28.3080  -27.7410   55.2420 C   0  0  0  0  0  0  0  0  0  0  0  0
  -27.7330  -26.4620   55.7750 C   0  0  0  0  0  0  0  0  0  0  0  0
  -26.2460  -26.2690   55.8200 C   0  0  0  0  0  0  0  0  0  0  0  0
  -25.3340  -27.3560   55.3330 C   0  0  0  0  0  0  0  0  0  0  0  0
  -22.5380  -29.1460   54.4990 H   0  0  0  0  0  0  0  0  0  0  0  0
  -29.3310  -27.8730   55.2110 H   0  0  0  0  0  0  0  0  0  0  0  0
  -28.3600  -25.7140   56.1100 H   0  0  0  0  0  0  0  0  0  0  0  0
  -25.8500  -25.3890   56.1860 H   0  0  0  0  0  0  0  0  0  0  0  0
  -16.9800  -31.4000   54.6410 C   0  0  0  0  0  2  0  0  0  0  0  0
  -17.3050  -31.8460   53.7250 H   0  0  0  0  0  0  0  0  0  0  0  0
  -17.6570  -30.8740   54.0020 H   0  0  0  0  0  0  0  0  0  0  0  0
  -16.0290  -32.1360   55.5390 N   0  0  0  0  0  1  0  0  0  0  0  0
  -16.5560  -32.9270   56.7000 C   0  0  0  0  0  3  0  0  0  0  0  0
  -17.0430  -33.8640   56.5310 H   0  0  0  0  0  0  0  0  0  0  0  0
  -16.6680  -33.3010   55.7030 H   0  0  0  0  0  0  0  0  0  0  0  0
  -16.4000  -32.4040   58.0970 C   0  0  0  0  0  0  0  0  0  0  0  0
  -15.9120  -31.4660   58.2660 H   0  0  0  0  0  0  0  0  0  0  0  0
  -16.7750  -32.9680   58.9250 H   0  0  0  0  0  0  0  0  0  0  0  0
  -16.2880  -32.0310   59.0940 H   0  0  0  0  0  0  0  0  0  0  0  0
  -14.5530  -32.0810   55.2760 C   0  0  0  0  0  0  0  0  0  0  0  0
  -14.0980  -32.8040   54.6340 H   0  0  0  0  0  0  0  0  0  0  0  0
  -13.5010  -32.0420   55.0890 H   0  0  0  0  0  0  0  0  0  0  0  0
  -13.7180  -31.0120   55.9160 C   0  0  0  0  0  0  0  0  0  0  0  0
  -12.6650  -30.9730   55.7280 H   0  0  0  0  0  0  0  0  0  0  0  0
  -14.1740  -30.2880   56.5590 H   0  0  0  0  0  0  0  0  0  0  0  0
  -13.1210  -30.2490   56.3720 H   0  0  0  0  0  0  0  0  0  0  0  0
  1  2  1  0
  2  7  1  0
  2  3  2  0
  3  8  1  0
  4  3  1  0
  4 11  1  0
  5  4  2  0
  6  1  2  0
  6  5  1  0
  9  5  1  0
 10  6  1  0
 11 18  1  0
 12 11  1  0
 12 13  2  0
 14 13  1  0
 14 19  1  0
 15 14  2  0
 16 17  2  0
 16 15  1  0
 17 12  1  0
 20 15  1  0
 21 29  2  0
 21 16  1  0
 22 21  1  0
 23 22  2  0
 23 24  1  0
 24 29  1  0
 25 24  1  0
 25 26  2  0
 26 27  1  0
 27 28  2  0
 27 32  1  0
 28 33  1  0
 29 28  1  0
 30 22  1  0
 31 26  1  0
 35 34  1  0
 36 34  1  0
 38 41  1  0
 39 38  1  0
 40 38  1  0
 41 42  1  0
 41 43  1  0
 41 44  1  0
 45 37  1  0
 45 48  1  0
 46 45  1  0
 47 45  1  0
 48 51  1  0
 48 50  1  0
 49 48  1  0
M  END
>  <minimizedAffinity>  (206) 
-9.86326408

$$$$

     RDKit          3D

 61 58  0  0  0  0  0  0  0  0999 V2000
  -24.2680  -28.3320   55.0620 C   0  0  0  0  0  0  0  0  0  0  0  0
  -23.0820  -27.4910   55.4350 C   0  0  0  0  0  0  0  0  0  0  0  0
  -21.8460  -28.2030   54.9710 C   0  0  0  0  0  0  0  0  0  0  0  0
  -22.2670  -29.4820   54.3120 C   0  0  0  0  0  0  0  0  0  0  0  0
  -23.7640  -29.5620   54.3680 O   0  0  0  0  0  0  0  0  0  0  0  0
  -23.1120  -26.5830   55.9250 H   0  0  0  0  0  0  0  0  0  0  0  0
  -20.4360  -27.7190   55.1380 C   0  0  0  0  0  0  0  0  0  0  0  0
  -20.1460  -26.2480   55.1680 C   0  0  0  0  0  0  0  0  0  0  0  0
  -18.7360  -25.7640   55.3350 C   0  0  0  0  0  0  0  0  0  0  0  0
  -17.6150  -26.7520   55.4700 C   0  0  0  0  0  3  0  0  0  0  0  0
  -17.9050  -28.2240   55.4400 C   0  0  0  0  0  0  0  0  0  0  0  0
  -19.3150  -28.7070   55.2730 C   0  0  0  0  0  0  0  0  0  0  0  0
  -16.6050  -28.9550   55.5960 C   0  0  0  0  0  3  0  0  0  0  0  0
  -15.5110  -27.9360   55.7230 C   0  0  0  0  0  2  0  0  0  0  0  0
  -16.1360  -26.5750   55.6460 C   0  0  0  0  0 15  0  0  0  0  0  0
  -15.4090  -25.2650   55.7290 N   0  0  0  0  0  1  0  0  0  0  0  0
  -20.9170  -25.5680   55.0750 H   0  0  0  0  0  0  0  0  0  0  0  0
  -18.5360  -24.7520   55.3560 H   0  0  0  0  0  0  0  0  0  0  0  0
  -19.5150  -29.7200   55.2520 H   0  0  0  0  0  0  0  0  0  0  0  0
  -16.4800  -30.0180   55.6140 H   0  0  0  0  0  0  0  0  0  0  0  0
  -15.6080  -29.3250   55.7160 H   0  0  0  0  0  0  0  0  0  0  0  0
  -14.4690  -28.1440   55.8480 H   0  0  0  0  0  0  0  0  0  0  0  0
  -14.8550  -27.0950   55.7990 H   0  0  0  0  0  0  0  0  0  0  0  0
  -13.9190  -25.2440   55.9060 O   0  0  0  0  0  0  0  0  0  0  0  0
  -13.4660  -24.4260   55.9580 H   0  0  0  0  0  0  0  0  0  0  0  0
  -28.5780  -27.3350   55.8830 C   0  0  0  0  0  3  0  0  0  0  0  0
  -28.1820  -28.7460   55.5680 C   0  0  0  0  0  0  0  0  0  0  0  0
  -26.7460  -29.0790   55.2940 C   0  0  0  0  0  0  0  0  0  0  0  0
  -25.7050  -27.9990   55.3360 C   0  0  0  0  0  0  0  0  0  0  0  0
  -26.1010  -26.5880   55.6520 C   0  0  0  0  0  0  0  0  0  0  0  0
  -27.5370  -26.2550   55.9250 C   0  0  0  0  0  0  0  0  0  0  0  0
  -28.8990  -29.4890   55.5390 H   0  0  0  0  0  0  0  0  0  0  0  0
  -26.4720  -30.0500   55.0770 H   0  0  0  0  0  0  0  0  0  0  0  0
  -25.3850  -25.8450   55.6800 H   0  0  0  0  0  0  0  0  0  0  0  0
  -27.8100  -25.2830   56.1420 H   0  0  0  0  0  0  0  0  0  0  0  0
  -30.0150  -27.0020   56.1570 O   0  0  0  0  0 15  0  0  0  0  0  0
  -30.5580  -27.1130   57.5500 C   0  0  0  0  0  2  0  0  0  0  0  0
  -30.5600  -26.2580   58.1940 H   0  0  0  0  0  0  0  0  0  0  0  0
  -30.1730  -26.1790   57.1990 H   0  0  0  0  0  0  0  0  0  0  0  0
  -31.1000  -28.4230   58.0430 C   0  0  0  0  0  3  0  0  0  0  0  0
  -32.1550  -28.6010   58.0400 H   0  0  0  0  0  0  0  0  0  0  0  0
  -31.7690  -27.6670   57.6880 H   0  0  0  0  0  0  0  0  0  0  0  0
  -30.1620  -29.4830   58.5390 N   0  0  0  0  0  0  0  0  0  0  0  0
  -30.3700  -30.9140   58.1420 C   0  0  0  0  0  0  0  0  0  0  0  0
  -29.7010  -31.6700   58.4960 H   0  0  0  0  0  0  0  0  0  0  0  0
  -31.1870  -31.1790   57.5040 H   0  0  0  0  0  0  0  0  0  0  0  0
  -30.5180  -31.9350   57.8580 H   0  0  0  0  0  0  0  0  0  0  0  0
  -29.0170  -29.1120   59.4330 C   0  0  0  0  0  0  0  0  0  0  0  0
  -28.8680  -28.0900   59.7170 H   0  0  0  0  0  0  0  0  0  0  0  0
  -28.3480  -29.8680   59.7880 H   0  0  0  0  0  0  0  0  0  0  0  0
  -28.2000  -28.8470   60.0710 H   0  0  0  0  0  0  0  0  0  0  0  0
  -21.3520  -30.5030   53.7030 C   0  0  0  0  0  0  0  0  0  0  0  0
  -21.3440  -31.9090   54.2260 C   0  0  0  0  0  0  0  0  0  0  0  0
  -20.4280  -32.9300   53.6180 C   0  0  0  0  0  0  0  0  0  0  0  0
  -19.5220  -32.5450   52.4870 N   0  0  0  0  0  0  0  0  0  0  0  0
  -19.5300  -31.1400   51.9640 C   0  0  0  0  0  0  0  0  0  0  0  0
  -20.4450  -30.1180   52.5730 C   0  0  0  0  0  0  0  0  0  0  0  0
  -21.9670  -32.1740   55.0040 H   0  0  0  0  0  0  0  0  0  0  0  0
  -20.4230  -33.8980   53.9780 H   0  0  0  0  0  0  0  0  0  0  0  0
  -18.9060  -30.8750   51.1850 H   0  0  0  0  0  0  0  0  0  0  0  0
  -20.4510  -29.1510   52.2130 H   0  0  0  0  0  0  0  0  0  0  0  0
  1 29  1  0
  1  2  2  0
  2  6  1  0
  3  7  1  0
  3  2  1  0
  4  5  1  0
  4  3  2  0
  5  1  1  0
  7  8  2  0
  7 12  1  0
  8  9  1  0
  9 18  1  0
  9 10  2  0
 11 10  1  0
 11 13  1  0
 12 11  2  0
 13 20  1  0
 13 21  1  0
 14 23  1  0
 14 22  1  0
 16 24  1  0
 17  8  1  0
 19 12  1  0
 24 25  1  0
 26 31  1  0
 27 26  2  0
 28 29  2  0
 28 27  1  0
 29 30  1  0
 30 34  1  0
 30 31  2  0
 31 35  1  0
 32 27  1  0
 33 28  1  0
 37 38  1  0
 39 37  1  0
 40 43  1  0
 41 40  1  0
 42 40  1  0
 43 48  1  0
 44 45  1  0
 44 43  1  0
 46 44  1  0
 47 44  1  0
 48 49  1  0
 48 50  1  0
 48 51  1  0
 52 53  1  0
 52  4  1  0
 53 58  1  0
 54 59  1  0
 54 53  2  0
 55 54  1  0
 56 55  2  0
 56 57  1  0
 57 52  2  0
 60 56  1  0
 61 57  1  0
M  END
>  <minimizedAffinity>  (207) 
-9.81578255

$$$$

     RDKit          3D

 66 64  0  0  0  0  0  0  0  0999 V2000
  -19.4730  -26.6240   55.8680 C   0  0  0  0  0  0  0  0  0  0  0  0
  -19.3980  -25.1940   56.3170 C   0  0  0  0  0  0  0  0  0  0  0  0
  -20.6570  -24.4020   56.5110 C   0  0  0  0  0  0  0  0  0  0  0  0
  -21.9910  -25.0400   56.2550 C   0  0  0  0  0  0  0  0  0  0  0  0
  -23.2500  -24.2480   56.4490 N   0  0  0  0  0  0  0  0  0  0  0  0
  -24.5840  -24.8850   56.1930 C   0  0  0  0  0  0  0  0  0  0  0  0
  -24.6580  -26.3140   55.7450 N   0  0  0  0  0  0  0  0  0  0  0  0
  -23.3990  -27.1060   55.5510 C   0  0  0  0  0  0  0  0  0  0  0  0
  -23.4740  -28.5360   55.1020 N   0  0  0  0  0  0  0  0  0  0  0  0
  -22.0650  -26.4690   55.8060 C   0  0  0  0  0  0  0  0  0  0  0  0
  -20.8060  -27.2610   55.6130 C   0  0  0  0  0  0  0  0  0  0  0  0
  -18.4810  -24.7560   56.4930 H   0  0  0  0  0  0  0  0  0  0  0  0
  -20.6060  -23.4190   56.8190 H   0  0  0  0  0  0  0  0  0  0  0  0
  -25.4500  -24.3400   56.3270 H   0  0  0  0  0  0  0  0  0  0  0  0
  -22.6470  -29.0560   54.9750 H   0  0  0  0  0  0  0  0  0  0  0  0
  -20.8580  -28.2450   55.3040 H   0  0  0  0  0  0  0  0  0  0  0  0
  -24.8070  -29.1730   54.8470 C   0  0  0  0  0  0  0  0  0  0  0  0
  -25.2860  -29.3730   53.4390 C   0  0  0  0  0  0  0  0  0  0  0  0
  -26.6190  -30.0110   53.1840 C   0  0  0  0  0  0  0  0  0  0  0  0
  -27.4750  -30.4470   54.3360 C   0  0  0  0  0  0  0  0  0  0  0  0
  -26.9970  -30.2470   55.7440 C   0  0  0  0  0  0  0  0  0  0  0  0
  -27.8520  -30.6840   56.8960 Cl  0  0  0  0  0  0  0  0  0  0  0  0
  -25.6630  -29.6100   55.9990 C   0  0  0  0  0  0  0  0  0  0  0  0
  -24.6970  -29.0730   52.6460 H   0  0  0  0  0  0  0  0  0  0  0  0
  -26.9480  -30.1490   52.2150 H   0  0  0  0  0  0  0  0  0  0  0  0
  -25.3340  -29.4720   56.9670 H   0  0  0  0  0  0  0  0  0  0  0  0
  -28.8080  -31.0850   54.0810 O   0  0  0  0  0  0  0  0  0  0  0  0
  -29.7820  -30.4360   53.1420 C   0  0  0  0  0  0  0  0  0  0  0  0
  -29.9360  -30.8440   52.1640 H   0  0  0  0  0  0  0  0  0  0  0  0
  -30.4770  -29.9740   52.4720 H   0  0  0  0  0  0  0  0  0  0  0  0
  -30.5410  -29.2160   53.5730 C   0  0  0  0  0  0  0  0  0  0  0  0
  -30.9900  -29.0760   54.9970 C   0  0  0  0  0  0  0  0  0  0  0  0
  -31.7480  -27.8560   55.4280 C   0  0  0  0  0  0  0  0  0  0  0  0
  -32.0570  -26.7760   54.4350 C   0  0  0  0  0  0  0  0  0  0  0  0
  -31.6080  -26.9150   53.0100 C   0  0  0  0  0  0  0  0  0  0  0  0
  -31.9180  -25.8350   52.0170 F   0  0  0  0  0  0  0  0  0  0  0  0
  -30.8500  -28.1360   52.5790 C   0  0  0  0  0  0  0  0  0  0  0  0
  -30.7770  -29.8200   55.6810 H   0  0  0  0  0  0  0  0  0  0  0  0
  -32.0570  -27.7600   56.4080 H   0  0  0  0  0  0  0  0  0  0  0  0
  -32.5790  -25.9360   54.7310 H   0  0  0  0  0  0  0  0  0  0  0  0
  -30.5410  -28.2320   51.5990 H   0  0  0  0  0  0  0  0  0  0  0  0
  -16.6730  -29.2710   55.3950 C   0  0  0  0  0 15  0  0  0  0  0  0
  -15.8790  -27.9990   55.3590 C   0  0  0  0  0  2  0  0  0  0  0  0
  -16.8310  -26.8520   55.5310 C   0  0  0  0  0  0  0  0  0  0  0  0
  -18.2140  -27.4160   55.6750 C   0  0  0  0  0  0  0  0  0  0  0  0
  -18.1160  -28.9100   55.5900 O   0  0  0  0  0  1  0  0  0  0  0  0
  -14.8570  -27.9250   55.2360 H   0  0  0  0  0  0  0  0  0  0  0  0
  -16.5790  -25.8510   55.5490 H   0  0  0  0  0  0  0  0  0  0  0  0
  -16.1220  -30.6590   55.2600 C   0  0  0  0  0  3  0  0  0  0  0  0
  -16.4050  -31.2690   54.4270 H   0  0  0  0  0  0  0  0  0  0  0  0
  -16.7990  -30.2780   54.5240 H   0  0  0  0  0  0  0  0  0  0  0  0
  -12.3280  -32.7950   59.3880 O   0  0  0  0  0  0  0  0  0  0  0  0
  -13.2770  -32.2610   58.3560 S   0  0  0  0  0  3  0  0  0  0  0  0
  -14.7560  -32.3190   58.5950 C   0  0  0  0  0  3  0  0  0  0  0  0
  -15.7040  -31.7860   57.5640 C   0  0  0  0  0  2  0  0  0  0  0  0
  -15.1730  -31.1930   56.2920 N   0  0  0  0  0  0  0  0  0  0  0  0
  -13.6940  -31.1340   56.0520 C   0  0  0  0  0  0  0  0  0  0  0  0
  -12.7450  -31.6680   57.0840 C   0  0  0  0  0  2  0  0  0  0  0  0
  -15.1350  -32.7420   59.5020 H   0  0  0  0  0  0  0  0  0  0  0  0
  -15.8110  -32.3610   58.7660 H   0  0  0  0  0  0  0  0  0  0  0  0
  -16.7600  -31.8270   57.7340 H   0  0  0  0  0  0  0  0  0  0  0  0
  -16.3810  -31.4050   56.8280 H   0  0  0  0  0  0  0  0  0  0  0  0
  -13.3150  -30.7110   55.1450 H   0  0  0  0  0  0  0  0  0  0  0  0
  -12.6380  -31.0920   55.8810 H   0  0  0  0  0  0  0  0  0  0  0  0
  -11.6900  -31.6260   56.9140 H   0  0  0  0  0  0  0  0  0  0  0  0
  -12.0680  -32.0490   57.8200 H   0  0  0  0  0  0  0  0  0  0  0  0
  1  2  1  0
  2 12  1  0
  2  3  2  0
  3 13  1  0
  4  5  1  0
  4  3  1  0
  6 14  1  0
  6  5  2  0
  7  6  1  0
  8  7  2  0
  8 10  1  0
  9  8  1  0
 10  4  2  0
 11 10  1  0
 11  1  2  0
 15  9  1  0
 16 11  1  0
 17  9  1  0
 17 23  1  0
 18 17  2  0
 19 18  1  0
 19 20  2  0
 20 21  1  0
 21 23  2  0
 21 22  1  0
 23 26  1  0
 24 18  1  0
 25 19  1  0
 27 20  1  0
 28 31  1  0
 28 27  1  0
 29 28  1  0
 30 28  1  0
 31 32  1  0
 32 33  2  0
 32 38  1  0
 33 39  1  0
 34 40  1  0
 34 33  1  0
 35 34  2  0
 36 35  1  0
 37 35  1  0
 37 31  2  0
 41 37  1  0
 43 44  1  0
 44 48  1  0
 44 45  2  0
 45  1  1  0
 46 45  1  0
 47 43  1  0
 49 56  1  0
 50 49  1  0
 51 49  1  0
 53 54  1  0
 53 52  2  0
 54 60  1  0
 54 59  1  0
 55 61  1  0
 57 56  2  0
 58 66  1  0
 62 55  1  0
 63 57  1  0
 64 57  1  0
 65 58  1  0
M  END
>  <minimizedAffinity>  (208) 
-11.5931664

$$$$

     RDKit          3D

 49 47  0  0  0  0  0  0  0  0999 V2000
  -20.6840  -27.6290   55.3490 C   0  0  0  0  0  0  0  0  0  0  0  0
  -20.3240  -28.7270   56.3060 C   0  0  0  0  0  0  0  0  0  0  0  0
  -19.1780  -29.6440   55.9980 C   0  0  0  0  0  0  0  0  0  0  0  0
  -18.3920  -29.4650   54.7330 C   0  0  0  0  0  0  0  0  0  0  0  0
  -18.7520  -28.3680   53.7760 C   0  0  0  0  0  0  0  0  0  0  0  0
  -19.8980  -27.4500   54.0840 C   0  0  0  0  0  0  0  0  0  0  0  0
  -20.8650  -28.8500   57.1760 H   0  0  0  0  0  0  0  0  0  0  0  0
  -18.9310  -30.3990   56.6570 H   0  0  0  0  0  0  0  0  0  0  0  0
  -18.2120  -28.2440   52.9060 H   0  0  0  0  0  0  0  0  0  0  0  0
  -20.1460  -26.6950   53.4250 H   0  0  0  0  0  0  0  0  0  0  0  0
  -24.3800  -26.2170   55.6500 C   0  0  0  0  0  0  0  0  0  0  0  0
  -24.1220  -24.8760   56.2710 C   0  0  0  0  0  0  0  0  0  0  0  0
  -22.7170  -24.4530   56.5850 C   0  0  0  0  0  0  0  0  0  0  0  0
  -21.5710  -25.3710   56.2770 C   0  0  0  0  0  0  0  0  0  0  0  0
  -21.8300  -26.7110   55.6560 C   0  0  0  0  0  0  0  0  0  0  0  0
  -23.2350  -27.1340   55.3430 C   0  0  0  0  0  0  0  0  0  0  0  0
  -24.9100  -24.2440   56.4830 H   0  0  0  0  0  0  0  0  0  0  0  0
  -22.5390  -23.5310   57.0120 H   0  0  0  0  0  0  0  0  0  0  0  0
  -23.4120  -28.0570   54.9150 H   0  0  0  0  0  0  0  0  0  0  0  0
  -26.1640  -28.0890   55.4030 C   0  0  0  0  0  2  0  0  0  0  0  0
  -25.1390  -29.1160   55.7820 O   0  0  0  0  0  1  0  0  0  0  0  0
  -25.7850  -26.6390   55.3370 N   0  0  0  0  0  0  0  0  0  0  0  0
  -26.4580  -25.9650   55.0880 H   0  0  0  0  0  0  0  0  0  0  0  0
  -27.5690  -28.5120   55.0890 C   0  0  0  0  0  3  0  0  0  0  0  0
  -28.3430  -28.3770   55.8160 H   0  0  0  0  0  0  0  0  0  0  0  0
  -27.3410  -28.0760   56.0400 H   0  0  0  0  0  0  0  0  0  0  0  0
  -27.8890  -29.1230   53.7570 C   0  0  0  0  0  0  0  0  0  0  0  0
  -27.1150  -29.2570   53.0300 H   0  0  0  0  0  0  0  0  0  0  0  0
  -28.8910  -29.4250   53.5340 H   0  0  0  0  0  0  0  0  0  0  0  0
  -28.1170  -29.5590   52.8070 H   0  0  0  0  0  0  0  0  0  0  0  0
  -20.1670  -24.9480   56.5910 C   0  0  0  0  0  0  0  0  0  0  0  0
  -19.3490  -25.6030   56.3710 H   0  0  0  0  0  0  0  0  0  0  0  0
  -19.9820  -23.9910   57.0340 H   0  0  0  0  0  0  0  0  0  0  0  0
  -19.1650  -24.6460   56.8140 H   0  0  0  0  0  0  0  0  0  0  0  0
  -17.2470  -30.3830   54.4260 C   0  0  0  0  0  0  0  0  0  0  0  0
  -16.8650  -30.6540   53.0010 O   0  0  0  0  0  0  0  0  0  0  0  0
  -16.4830  -31.0290   55.5430 N   0  0  0  0  0  0  0  0  0  0  0  0
  -16.7330  -30.8510   56.4780 H   0  0  0  0  0  0  0  0  0  0  0  0
  -15.3370  -31.9470   55.2360 C   0  0  0  0  0  0  0  0  0  0  0  0
  -15.4940  -32.8140   54.6280 H   0  0  0  0  0  0  0  0  0  0  0  0
  -14.5190  -32.6020   55.0160 H   0  0  0  0  0  0  0  0  0  0  0  0
  -13.9710  -31.6490   55.7790 C   0  0  0  0  0  1  0  0  0  0  0  0
  -12.5490  -31.2250   55.5590 C   0  0  0  0  0  3  0  0  0  0  0  0
  -13.0260  -31.5590   56.9410 C   0  0  0  0  0  2  0  0  0  0  0  0
  -12.9960  -31.4370   56.1670 H   0  0  0  0  0  0  0  0  0  0  0  0
  -11.7670  -30.9120   54.8990 H   0  0  0  0  0  0  0  0  0  0  0  0
  -11.6960  -31.0810   56.1890 H   0  0  0  0  0  0  0  0  0  0  0  0
  -12.8340  -31.6590   57.9890 H   0  0  0  0  0  0  0  0  0  0  0  0
  -13.9560  -31.8770   57.3640 H   0  0  0  0  0  0  0  0  0  0  0  0
  1 15  1  0
  1  2  1  0
  2  7  1  0
  3  2  2  0
  3  8  1  0
  4  3  1  0
  5  6  1  0
  5  4  2  0
  6  1  2  0
  9  5  1  0
 10  6  1  0
 11 12  1  0
 12 17  1  0
 12 13  2  0
 13 18  1  0
 14 13  1  0
 14 31  1  0
 15 14  2  0
 16 11  2  0
 16 15  1  0
 19 16  1  0
 20 21  1  0
 22 20  1  0
 22 11  1  0
 23 22  1  0
 24 25  1  0
 24 26  1  0
 27 24  1  0
 28 27  1  0
 29 27  1  0
 30 27  1  0
 31 34  1  0
 31 33  1  0
 32 31  1  0
 35  4  1  0
 35 37  1  0
 36 35  2  0
 37 38  1  0
 39 37  1  0
 39 42  1  0
 40 39  1  0
 41 39  1  0
 43 45  1  0
 43 47  1  0
 44 49  1  0
 44 48  1  0
 46 43  1  0
M  END
>  <minimizedAffinity>  (209) 
-9.16784859

$$$$

     RDKit          3D

 34 36  0  0  0  0  0  0  0  0999 V2000
  -18.2120  -28.2660   54.2150 N   0  0  0  0  0  0  0  0  0  0  0  0
  -17.7460  -27.7640   53.5080 H   0  0  0  0  0  0  0  0  0  0  0  0
  -19.6720  -28.0270   54.4650 N   0  0  0  0  0  0  0  0  0  0  0  0
  -20.1170  -26.7860   55.1780 C   0  0  0  0  0  0  0  0  0  0  0  0
  -19.2240  -25.6980   55.6970 C   0  0  0  0  0  0  0  0  0  0  0  0
  -17.7280  -25.6620   55.5940 O   0  0  0  0  0  0  0  0  0  0  0  0
  -20.0880  -24.6530   56.3380 N   0  0  0  0  0  0  0  0  0  0  0  0
  -21.5160  -25.0950   56.2150 C   0  0  0  0  0  0  0  0  0  0  0  0
  -22.8030  -24.4680   56.6630 C   0  0  0  0  0  0  0  0  0  0  0  0
  -24.1070  -25.1580   56.3950 C   0  0  0  0  0  0  0  0  0  0  0  0
  -24.1250  -26.4750   55.6780 C   0  0  0  0  0  0  0  0  0  0  0  0
  -25.4300  -27.1650   55.4100 Cl  0  0  0  0  0  0  0  0  0  0  0  0
  -22.8390  -27.1030   55.2300 C   0  0  0  0  0  0  0  0  0  0  0  0
  -21.5340  -26.4130   55.4990 C   0  0  0  0  0  0  0  0  0  0  0  0
  -19.7730  -23.8240   56.7640 H   0  0  0  0  0  0  0  0  0  0  0  0
  -22.7910  -23.5610   57.1560 H   0  0  0  0  0  0  0  0  0  0  0  0
  -24.9930  -24.7260   56.7030 H   0  0  0  0  0  0  0  0  0  0  0  0
  -22.8510  -28.0090   54.7370 H   0  0  0  0  0  0  0  0  0  0  0  0
  -15.9670  -31.2780   56.6920 C   0  0  0  0  0  0  0  0  0  0  0  0
  -17.4150  -31.5010   56.3720 C   0  0  0  0  0  0  0  0  0  0  0  0
  -18.1640  -30.4970   55.5460 C   0  0  0  0  0  0  0  0  0  0  0  0
  -17.4630  -29.2700   55.0410 C   0  0  0  0  0  0  0  0  0  0  0  0
  -16.0160  -29.0470   55.3610 C   0  0  0  0  0  0  0  0  0  0  0  0
  -15.2660  -30.0510   56.1870 C   0  0  0  0  0  0  0  0  0  0  0  0
  -17.8970  -32.3450   56.7190 H   0  0  0  0  0  0  0  0  0  0  0  0
  -19.1600  -30.6500   55.3250 H   0  0  0  0  0  0  0  0  0  0  0  0
  -15.5340  -28.2020   55.0130 H   0  0  0  0  0  0  0  0  0  0  0  0
  -14.2700  -29.8980   56.4080 H   0  0  0  0  0  0  0  0  0  0  0  0
  -15.2180  -32.2810   57.5180 S   0  0  1  0  0  0  0  0  0  0  0  0
  -13.9570  -31.4880   57.3370 O   0  0  0  0  0  0  0  0  0  0  0  0
  -16.4770  -33.0740   57.6990 O   0  0  0  0  0  0  0  0  0  0  0  0
  -14.4680  -33.2840   58.3440 N   0  0  0  0  0  0  0  0  0  0  0  0
  -13.4700  -33.1580   58.5180 H   0  0  0  0  0  0  0  0  0  0  0  0
  -14.9550  -34.0930   58.7310 H   0  0  0  0  0  0  0  0  0  0  0  0
  1  3  1  0
  1 22  1  0
  2  1  1  0
  3  4  2  0
  4 14  1  0
  4  5  1  0
  5  7  1  0
  6  5  2  0
  7 15  1  0
  8  7  1  0
  8  9  1  0
  9 16  1  0
 10  9  2  0
 10 17  1  0
 11 10  1  0
 12 11  1  0
 13 14  1  0
 13 11  2  0
 14  8  2  0
 18 13  1  0
 19 29  1  0
 20 19  1  0
 20 25  1  0
 21 20  2  0
 22 23  2  0
 22 21  1  0
 23 24  1  0
 24 28  1  0
 24 19  2  0
 26 21  1  0
 27 23  1  0
 29 31  2  0
 29 32  1  0
 30 29  2  0
 32 33  1  0
 32 34  1  0
M  END
>  <minimizedAffinity>  (210) 
-8.32841587

$$$$

     RDKit          3D

 48 51  0  0  0  0  0  0  0  0999 V2000
  -16.6530  -28.8690   55.3910 C   0  0  0  0  0  0  0  0  0  0  0  0
  -17.9680  -28.1480   55.3670 C   0  0  0  0  0  0  0  0  0  0  0  0
  -17.6940  -26.6800   55.5010 C   0  0  0  0  0  0  0  0  0  0  0  0
  -16.2100  -26.4930   55.6080 C   0  0  0  0  0  0  0  0  0  0  0  0
  -15.5660  -27.8470   55.5390 S   0  0  0  0  0  0  0  0  0  0  0  0
  -18.8980  -28.5860   55.2750 H   0  0  0  0  0  0  0  0  0  0  0  0
  -14.1730  -33.3700   57.6760 C   0  0  0  0  0  0  0  0  0  0  0  0
  -14.9900  -33.7060   56.4640 C   0  0  0  0  0  0  0  0  0  0  0  0
  -15.7210  -32.6220   55.7290 C   0  0  0  0  0  0  0  0  0  0  0  0
  -16.5990  -32.6500   54.5120 N   0  0  0  0  0  0  0  0  0  0  0  0
  -17.0540  -31.2470   54.2380 C   0  0  0  0  0  0  0  0  0  0  0  0
  -16.4590  -30.3530   55.2840 N   0  0  0  0  0  0  0  0  0  0  0  0
  -15.6350  -31.2030   56.2060 C   0  0  0  0  0  0  0  0  0  0  0  0
  -14.8170  -30.8680   57.4180 C   0  0  0  0  0  0  0  0  0  0  0  0
  -14.0860  -31.9520   58.1530 C   0  0  0  0  0  0  0  0  0  0  0  0
  -15.0500  -34.6830   56.1360 H   0  0  0  0  0  0  0  0  0  0  0  0
  -17.6690  -30.9500   53.4640 H   0  0  0  0  0  0  0  0  0  0  0  0
  -14.7580  -29.8910   57.7460 H   0  0  0  0  0  0  0  0  0  0  0  0
  -13.4410  -34.4550   58.4110 O   0  0  0  0  0  0  0  0  0  0  0  0
  -12.5220  -35.3770   57.6660 C   0  0  0  0  0  0  0  0  0  0  0  0
  -12.3880  -35.2620   56.6110 H   0  0  0  0  0  0  0  0  0  0  0  0
  -12.0000  -36.1500   58.1910 H   0  0  0  0  0  0  0  0  0  0  0  0
  -11.8650  -36.0350   57.1350 H   0  0  0  0  0  0  0  0  0  0  0  0
  -13.2680  -31.6160   59.3650 O   0  0  0  0  0  0  0  0  0  0  0  0
  -11.7740  -31.5360   59.2630 C   0  0  0  0  0  0  0  0  0  0  0  0
  -11.1900  -31.2970   60.1270 H   0  0  0  0  0  0  0  0  0  0  0  0
  -11.2910  -31.7180   58.3250 H   0  0  0  0  0  0  0  0  0  0  0  0
  -10.7080  -31.4790   59.1890 H   0  0  0  0  0  0  0  0  0  0  0  0
  -15.4940  -25.1830   55.7560 C   0  0  0  0  0  0  0  0  0  0  0  0
  -14.3490  -25.0590   56.7170 N   0  0  0  0  0  0  0  0  0  0  0  0
  -15.9240  -23.9970   54.9450 O   0  0  0  0  0  0  0  0  0  0  0  0
  -14.0660  -25.8370   57.2500 H   0  0  0  0  0  0  0  0  0  0  0  0
  -13.8790  -24.1990   56.8140 H   0  0  0  0  0  0  0  0  0  0  0  0
  -18.7240  -25.5890   55.5250 O   0  0  0  0  0  0  0  0  0  0  0  0
  -19.8220  -25.6160   56.5450 C   0  0  0  0  0  0  0  0  0  0  0  0
  -19.6140  -25.3580   57.5630 H   0  0  0  0  0  0  0  0  0  0  0  0
  -20.6060  -25.6350   57.2740 H   0  0  0  0  0  0  0  0  0  0  0  0
  -21.2130  -26.0050   56.1410 C   0  0  0  0  0  0  0  0  0  0  0  0
  -21.5040  -27.4120   55.7130 C   0  0  0  0  0  0  0  0  0  0  0  0
  -22.8960  -27.8000   55.3080 C   0  0  0  0  0  0  0  0  0  0  0  0
  -23.9960  -26.7810   55.3330 C   0  0  0  0  0  0  0  0  0  0  0  0
  -23.7050  -25.3730   55.7610 C   0  0  0  0  0  0  0  0  0  0  0  0
  -22.3130  -24.9850   56.1660 C   0  0  0  0  0  0  0  0  0  0  0  0
  -22.0220  -23.5770   56.5940 Cl  0  0  0  0  0  0  0  0  0  0  0  0
  -20.7480  -28.1130   55.6960 H   0  0  0  0  0  0  0  0  0  0  0  0
  -23.0960  -28.7690   55.0130 H   0  0  0  0  0  0  0  0  0  0  0  0
  -24.9530  -27.0480   55.0540 H   0  0  0  0  0  0  0  0  0  0  0  0
  -24.4610  -24.6720   55.7780 H   0  0  0  0  0  0  0  0  0  0  0  0
  1  5  1  0
  2  1  2  0
  2  3  1  0
  3 34  1  0
  3  4  2  0
  4 29  1  0
  5  4  1  0
  6  2  1  0
  7 15  1  0
  7 19  1  0
  8  7  2  0
  9 13  2  0
  9  8  1  0
 10  9  1  0
 11 10  2  0
 11 12  1  0
 12  1  1  0
 12 13  1  0
 13 14  1  0
 14 18  1  0
 14 15  2  0
 15 24  1  0
 16  8  1  0
 17 11  1  0
 20 22  1  0
 20 19  1  0
 21 20  1  0
 23 20  1  0
 25 24  1  0
 25 26  1  0
 27 25  1  0
 28 25  1  0
 29 30  1  0
 30 33  1  0
 30 32  1  0
 31 29  2  0
 34 35  1  0
 35 37  1  0
 35 36  1  0
 38 43  1  0
 38 35  1  0
 39 38  2  0
 40 41  2  0
 40 39  1  0
 41 42  1  0
 42 48  1  0
 42 43  2  0
 43 44  1  0
 45 39  1  0
 46 40  1  0
 47 41  1  0
M  END
>  <minimizedAffinity>  (211) 
-8.92084599

$$$$

     RDKit          3D

 44 45  0  0  1  0  0  0  0  0999 V2000
  -21.8600  -28.2020   55.1810 C   0  0  0  0  0  0  0  0  0  0  0  0
  -21.4430  -29.5220   54.6040 N   0  0  0  0  0  0  0  0  0  0  0  0
  -19.9440  -29.5760   54.6070 C   0  0  0  0  0  0  0  0  0  0  0  0
  -19.4350  -28.2900   55.1860 C   0  0  0  0  0  0  0  0  0  0  0  0
  -20.6180  -27.4400   55.5410 N   0  0  0  0  0  0  0  0  0  0  0  0
  -20.5870  -26.5410   55.9400 H   0  0  0  0  0  0  0  0  0  0  0  0
  -26.0920  -26.7760   55.7370 C   0  0  0  0  0  1  0  0  0  0  0  0
  -25.8240  -28.2070   55.3790 C   0  0  0  0  0  0  0  0  0  0  0  0
  -24.4130  -28.6830   55.1940 C   0  0  0  0  0  0  0  0  0  0  0  0
  -23.2710  -27.7260   55.3670 C   0  0  0  0  0  3  0  0  0  0  0  0
  -23.5390  -26.2940   55.7240 C   0  0  0  0  0  0  0  0  0  0  0  0
  -24.9490  -25.8190   55.9090 C   0  0  0  0  0  3  0  0  0  0  0  0
  -26.6100  -28.8660   55.2610 H   0  0  0  0  0  0  0  0  0  0  0  0
  -24.2290  -29.6680   54.9480 H   0  0  0  0  0  0  0  0  0  0  0  0
  -22.7530  -25.6360   55.8430 H   0  0  0  0  0  0  0  0  0  0  0  0
  -25.1340  -24.8340   56.1550 H   0  0  0  0  0  0  0  0  0  0  0  0
  -27.5020  -26.3000   55.9220 C   0  0  0  0  0  3  0  0  0  0  0  0
  -27.8010  -25.8620   56.8520 H   0  0  0  0  0  0  0  0  0  0  0  0
  -26.7950  -26.2010   56.7190 H   0  0  0  0  0  0  0  0  0  0  0  0
  -28.4930  -26.4390   54.8050 N   0  0  0  0  0  0  0  0  0  0  0  0
  -28.2080  -26.8570   53.9200 H   0  0  0  0  0  0  0  0  0  0  0  0
  -29.4530  -26.1160   54.9310 H   0  0  0  0  0  0  0  0  0  0  0  0
  -19.1030  -30.7180   54.1170 C   0  0  0  0  0  0  0  0  0  0  0  0
  -18.4420  -30.6390   52.7720 C   0  0  0  0  0  0  0  0  0  0  0  0
  -17.6000  -31.7790   52.2820 C   0  0  0  0  0  0  0  0  0  0  0  0
  -17.4190  -32.9990   53.1360 C   0  0  0  0  0  0  0  0  0  0  0  0
  -16.5780  -34.1400   52.6460 Cl  0  0  0  0  0  0  0  0  0  0  0  0
  -18.0800  -33.0780   54.4800 C   0  0  0  0  0  0  0  0  0  0  0  0
  -18.9220  -31.9370   54.9700 C   0  0  0  0  0  0  0  0  0  0  0  0
  -18.5660  -29.7990   52.1840 H   0  0  0  0  0  0  0  0  0  0  0  0
  -17.1460  -31.7250   51.3580 H   0  0  0  0  0  0  0  0  0  0  0  0
  -19.3770  -31.9910   55.8960 H   0  0  0  0  0  0  0  0  0  0  0  0
  -17.8990  -34.2980   55.3340 O   0  0  0  0  0  0  0  0  0  0  0  0
  -17.3730  -35.0100   55.0280 H   0  0  0  0  0  0  0  0  0  0  0  0
  -17.9940  -27.9180   55.3770 C   0  0  0  0  0  0  0  0  0  0  0  0
  -17.5870  -26.4750   55.3910 C   0  0  0  0  0  0  0  0  0  0  0  0
  -16.1460  -26.1040   55.5810 C   0  0  0  0  0  0  0  0  0  0  0  0
  -15.1120  -27.1760   55.7580 N   0  0  0  0  0  0  0  0  0  0  0  0
  -15.5190  -28.6200   55.7440 C   0  0  0  0  0  0  0  0  0  0  0  0
  -16.9600  -28.9900   55.5530 C   0  0  0  0  0  0  0  0  0  0  0  0
  -18.2990  -25.7370   55.2690 H   0  0  0  0  0  0  0  0  0  0  0  0
  -15.8670  -25.1100   55.5910 H   0  0  0  0  0  0  0  0  0  0  0  0
  -14.8080  -29.3560   55.8650 H   0  0  0  0  0  0  0  0  0  0  0  0
  -17.2400  -29.9840   55.5430 H   0  0  0  0  0  0  0  0  0  0  0  0
  1 10  1  0
  1  5  1  0
  2  3  1  0
  2  1  2  0
  3  4  2  0
  4 35  1  0
  4  5  1  0
  5  6  1  0
  8  7  1  0
  9  8  2  0
 10  9  1  0
 10 11  1  0
 11 15  1  0
 11 12  2  0
 12 16  1  0
 13  8  1  0
 14  9  1  0
 17 19  1  0
 17 18  1  0
 20 22  1  0
 20 17  1  0
 21 20  1  0
 23  3  1  0
 23 29  1  0
 24 23  2  0
 25 24  1  0
 25 26  2  0
 26 28  1  0
 27 26  1  0
 28 29  2  0
 28 33  1  0
 29 32  1  0
 30 24  1  0
 31 25  1  0
 34 33  1  0
 35 36  2  0
 35 40  1  0
 36 37  1  0
 37 42  1  0
 37 38  2  0
 39 38  1  0
 39 43  1  0
 40 39  2  0
 41 36  1  0
 44 40  1  0
M  END
>  <minimizedAffinity>  (212) 
-8.727911

$$$$

     RDKit          3D

 35 37  0  0  1  0  0  0  0  0999 V2000
  -20.1700  -26.1860   55.8310 N   0  0  0  0  0  4  0  0  0  0  0  0
  -20.2310  -25.2440   56.1130 H   0  0  0  0  0  0  0  0  0  0  0  0
  -21.4190  -26.9970   55.6520 C   0  0  0  0  0  0  0  0  0  0  0  0
  -22.7620  -26.3460   55.7900 C   0  0  0  0  0  3  0  0  0  0  0  0
  -23.0150  -24.9010   56.1030 C   0  0  0  0  0  0  0  0  0  0  0  0
  -21.9660  -23.8530   56.3330 O   0  0  0  0  0  0  0  0  0  0  0  0
  -24.4990  -24.6860   56.1460 N   0  0  0  0  0  0  0  0  0  0  0  0
  -25.1640  -26.0000   55.8600 C   0  0  0  0  0  0  0  0  0  0  0  0
  -26.6090  -26.3950   55.7710 C   0  0  0  0  0  0  0  0  0  0  0  0
  -26.9800  -27.8150   55.4620 C   0  0  0  0  0  0  0  0  0  0  0  0
  -25.9080  -28.8400   55.2420 C   0  0  0  0  0  0  0  0  0  0  0  0
  -24.4630  -28.4460   55.3310 C   0  0  0  0  0  0  0  0  0  0  0  0
  -24.0920  -27.0260   55.6400 C   0  0  0  0  0  0  0  0  0  0  0  0
  -21.3530  -28.0030   55.4340 H   0  0  0  0  0  0  0  0  0  0  0  0
  -24.9550  -23.8340   56.3300 H   0  0  0  0  0  0  0  0  0  0  0  0
  -27.3470  -25.6900   55.9220 H   0  0  0  0  0  0  0  0  0  0  0  0
  -27.9740  -28.0870   55.4010 H   0  0  0  0  0  0  0  0  0  0  0  0
  -26.1640  -29.8170   55.0290 H   0  0  0  0  0  0  0  0  0  0  0  0
  -23.7250  -29.1510   55.1790 H   0  0  0  0  0  0  0  0  0  0  0  0
  -17.3540  -28.5560   54.3480 C   0  0  0  0  0  0  0  0  0  0  0  0
  -16.1450  -28.0520   55.0800 C   0  0  0  0  0  0  0  0  0  0  0  0
  -16.2780  -26.9260   56.0610 C   0  0  0  0  0  0  0  0  0  0  0  0
  -17.6200  -26.3040   56.3120 C   0  0  0  0  0  0  0  0  0  0  0  0
  -18.8280  -26.8080   55.5800 C   0  0  0  0  0  0  0  0  0  0  0  0
  -18.6960  -27.9340   54.5990 C   0  0  0  0  0  0  0  0  0  0  0  0
  -15.2220  -28.4800   54.9080 H   0  0  0  0  0  0  0  0  0  0  0  0
  -15.4470  -26.5790   56.5650 H   0  0  0  0  0  0  0  0  0  0  0  0
  -17.7110  -25.5290   56.9870 H   0  0  0  0  0  0  0  0  0  0  0  0
  -19.5270  -28.2810   54.0950 H   0  0  0  0  0  0  0  0  0  0  0  0
  -17.2200  -29.6830   53.3660 S   0  0  1  0  0  0  0  0  0  0  0  0
  -18.1950  -29.0010   52.4520 O   0  0  0  0  0  0  0  0  0  0  0  0
  -16.2460  -30.3640   54.2810 O   0  0  0  0  0  0  0  0  0  0  0  0
  -17.0870  -30.8090   52.3850 N   0  0  0  0  0  0  0  0  0  0  0  0
  -17.6150  -30.7900   51.5130 H   0  0  0  0  0  0  0  0  0  0  0  0
  -16.4670  -31.5930   52.5890 H   0  0  0  0  0  0  0  0  0  0  0  0
  1  2  1  0
  3  1  2  0
  4  3  1  0
  4  5  1  0
  5  7  1  0
  5  6  2  0
  7 15  1  0
  8  7  1  0
  9  8  1  0
  9 16  1  0
 10  9  2  0
 11 12  2  0
 11 10  1  0
 12 13  1  0
 13  4  1  0
 13  8  2  0
 14  3  1  0
 17 10  1  0
 18 11  1  0
 19 12  1  0
 20 25  2  0
 20 21  1  0
 21 22  2  0
 22 23  1  0
 22 27  1  0
 23 28  1  0
 24  1  1  0
 24 23  2  0
 25 24  1  0
 26 21  1  0
 29 25  1  0
 30 32  2  0
 30 20  1  0
 31 30  2  0
 33 35  1  0
 33 30  1  0
 34 33  1  0
M  END
>  <minimizedAffinity>  (213) 
-8.50325298

$$$$

     RDKit          3D

 43 46  0  0  0  0  0  0  0  0999 V2000
  -16.7280  -27.8940   55.4690 C   0  0  0  0  0  0  0  0  0  0  0  0
  -15.6620  -28.9240   55.6970 S   0  0  0  0  0  0  0  0  0  0  0  0
  -16.3060  -30.2790   55.6380 C   0  0  0  0  0  0  0  0  0  0  0  0
  -17.7690  -30.0840   55.3750 C   0  0  0  0  0  0  0  0  0  0  0  0
  -18.0300  -28.6110   55.2710 C   0  0  0  0  0  0  0  0  0  0  0  0
  -18.4730  -30.8320   55.2820 H   0  0  0  0  0  0  0  0  0  0  0  0
  -15.6080  -31.5940   55.8120 N   0  0  0  0  0  0  0  0  0  0  0  0
  -15.7840  -32.8080   54.9480 C   0  0  0  0  0  0  0  0  0  0  0  0
  -14.8960  -33.8920   55.4830 N   0  0  0  0  0  0  0  0  0  0  0  0
  -14.1710  -33.3490   56.6790 C   0  0  0  0  0  0  0  0  0  0  0  0
  -13.1670  -33.9630   57.6080 C   0  0  0  0  0  0  0  0  0  0  0  0
  -12.6030  -33.1590   58.7420 C   0  0  0  0  0  0  0  0  0  0  0  0
  -13.0430  -31.7390   58.9450 C   0  0  0  0  0  0  0  0  0  0  0  0
  -14.0470  -31.1240   58.0160 C   0  0  0  0  0  0  0  0  0  0  0  0
  -14.6110  -31.9290   56.8820 C   0  0  0  0  0  0  0  0  0  0  0  0
  -16.4070  -32.8830   54.1280 H   0  0  0  0  0  0  0  0  0  0  0  0
  -12.8650  -34.9400   57.4680 H   0  0  0  0  0  0  0  0  0  0  0  0
  -11.9130  -33.5820   59.3810 H   0  0  0  0  0  0  0  0  0  0  0  0
  -14.3500  -30.1480   58.1560 H   0  0  0  0  0  0  0  0  0  0  0  0
  -12.4790  -30.9340   60.0780 C   0  0  0  0  0  0  0  0  0  0  0  0
  -11.9150  -30.1300   61.2120 F   0  0  0  0  0  0  0  0  0  0  0  0
  -13.8670  -30.6680   60.5800 F   0  0  0  0  0  0  0  0  0  0  0  0
  -11.0910  -31.2000   59.5760 F   0  0  0  0  0  0  0  0  0  0  0  0
  -17.6920  -25.4970   55.2000 N   0  0  0  0  0  0  0  0  0  0  0  0
  -16.5260  -26.4080   55.4460 C   0  0  0  0  0  0  0  0  0  0  0  0
  -15.1580  -25.8330   55.6670 O   0  0  0  0  0  0  0  0  0  0  0  0
  -18.5910  -25.8740   55.0550 H   0  0  0  0  0  0  0  0  0  0  0  0
  -17.5610  -24.5210   55.1850 H   0  0  0  0  0  0  0  0  0  0  0  0
  -19.3600  -27.9670   55.0130 O   0  0  0  0  0  0  0  0  0  0  0  0
  -20.3650  -27.8520   56.1220 C   0  0  0  0  0  0  0  0  0  0  0  0
  -20.3490  -28.5510   56.9320 H   0  0  0  0  0  0  0  0  0  0  0  0
  -21.0810  -27.7700   56.9120 H   0  0  0  0  0  0  0  0  0  0  0  0
  -21.3910  -26.7590   56.0930 C   0  0  0  0  0  0  0  0  0  0  0  0
  -21.0570  -25.4020   56.6380 C   0  0  0  0  0  0  0  0  0  0  0  0
  -22.0830  -24.3080   56.6090 C   0  0  0  0  0  0  0  0  0  0  0  0
  -23.4430  -24.5710   56.0360 C   0  0  0  0  0  0  0  0  0  0  0  0
  -23.7790  -25.9280   55.4910 C   0  0  0  0  0  0  0  0  0  0  0  0
  -22.7520  -27.0220   55.5190 C   0  0  0  0  0  0  0  0  0  0  0  0
  -23.0870  -28.3790   54.9740 Br  0  0  0  0  0  0  0  0  0  0  0  0
  -20.1200  -25.2210   57.0320 H   0  0  0  0  0  0  0  0  0  0  0  0
  -21.8520  -23.3750   56.9840 H   0  0  0  0  0  0  0  0  0  0  0  0
  -24.1500  -23.8190   56.0160 H   0  0  0  0  0  0  0  0  0  0  0  0
  -24.7140  -26.1090   55.0960 H   0  0  0  0  0  0  0  0  0  0  0  0
  1  2  1  0
  3  2  1  0
  3  7  1  0
  4  3  2  0
  5  4  1  0
  5  1  2  0
  6  4  1  0
  7 15  1  0
  8  9  2  0
  8  7  1  0
  9 10  1  0
 10 15  2  0
 10 11  1  0
 11 12  2  0
 12 13  1  0
 12 18  1  0
 13 20  1  0
 14 19  1  0
 14 13  2  0
 15 14  1  0
 16  8  1  0
 17 11  1  0
 20 22  1  0
 20 21  1  0
 23 20  1  0
 24 25  1  0
 25  1  1  0
 25 26  2  0
 27 24  1  0
 28 24  1  0
 29  5  1  0
 29 30  1  0
 30 32  1  0
 30 31  1  0
 33 30  1  0
 33 34  1  0
 34 40  1  0
 35 34  2  0
 35 41  1  0
 36 35  1  0
 37 38  1  0
 37 36  2  0
 38 33  2  0
 39 38  1  0
 42 36  1  0
 43 37  1  0
M  END
>  <minimizedAffinity>  (214) 
-10.1154509

$$$$

     RDKit          3D

 60 58  0  0  0  0  0  0  0  0999 V2000
  -18.4350  -31.9180   55.0650 C   0  0  0  0  0  0  0  0  0  0  0  0
  -17.3580  -32.8120   55.6050 C   0  0  0  0  0  0  0  0  0  0  0  0
  -17.6870  -34.2220   55.2160 N   0  0  0  0  0  0  0  0  0  0  0  0
  -18.9670  -34.2010   54.4350 C   0  0  0  0  0  0  0  0  0  0  0  0
  -19.4300  -32.7770   54.3410 N   0  0  0  0  0  0  0  0  0  0  0  0
  -19.4460  -35.0220   54.0320 H   0  0  0  0  0  0  0  0  0  0  0  0
  -20.6680  -32.2960   53.6460 C   0  0  0  0  0  2  0  0  0  0  0  0
  -21.9910  -32.9410   53.9370 C   0  0  0  0  0  2  0  0  0  0  0  0
  -23.2300  -32.4590   53.2410 C   0  0  0  0  0  2  0  0  0  0  0  0
  -23.1450  -31.3320   52.2550 N   0  0  0  0  0  2  0  0  0  0  0  0
  -21.8230  -30.6870   51.9630 C   0  0  0  0  0  3  0  0  0  0  0  0
  -20.5840  -31.1690   52.6590 C   0  0  0  0  0  2  0  0  0  0  0  0
  -21.5520  -31.9520   53.1490 H   0  0  0  0  0  0  0  0  0  0  0  0
  -22.0510  -33.7440   54.6410 H   0  0  0  0  0  0  0  0  0  0  0  0
  -22.9350  -33.4010   54.1440 H   0  0  0  0  0  0  0  0  0  0  0  0
  -24.1730  -32.9190   53.4490 H   0  0  0  0  0  0  0  0  0  0  0  0
  -24.1130  -32.1150   52.7450 H   0  0  0  0  0  0  0  0  0  0  0  0
  -23.9870  -31.0040   51.7820 H   0  0  0  0  0  0  0  0  0  0  0  0
  -21.7630  -29.8830   51.2600 H   0  0  0  0  0  0  0  0  0  0  0  0
  -20.8790  -30.2270   51.7560 H   0  0  0  0  0  0  0  0  0  0  0  0
  -19.6410  -30.7090   52.4510 H   0  0  0  0  0  0  0  0  0  0  0  0
  -19.7010  -31.5130   53.1550 H   0  0  0  0  0  0  0  0  0  0  0  0
  -16.1620  -32.3710   56.3970 C   0  0  0  0  0  0  0  0  0  0  0  0
  -14.8800  -32.0350   55.6940 C   0  0  0  0  0  0  0  0  0  0  0  0
  -13.6850  -31.5950   56.4850 C   0  0  0  0  0  0  0  0  0  0  0  0
  -13.7700  -31.4900   57.9790 C   0  0  0  0  0  0  0  0  0  0  0  0
  -12.5740  -31.0500   58.7690 F   0  0  0  0  0  0  0  0  0  0  0  0
  -15.0520  -31.8270   58.6820 C   0  0  0  0  0  0  0  0  0  0  0  0
  -16.2480  -32.2670   57.8900 C   0  0  0  0  0  0  0  0  0  0  0  0
  -14.8220  -32.1070   54.6660 H   0  0  0  0  0  0  0  0  0  0  0  0
  -12.8030  -31.3630   56.0010 H   0  0  0  0  0  0  0  0  0  0  0  0
  -15.1110  -31.7550   59.7090 H   0  0  0  0  0  0  0  0  0  0  0  0
  -17.1300  -32.4990   58.3750 H   0  0  0  0  0  0  0  0  0  0  0  0
  -19.7360  -28.3120   56.0890 C   0  0  0  0  0  0  0  0  0  0  0  0
  -18.6440  -27.4470   55.5310 N   0  0  0  0  0  0  0  0  0  0  0  0
  -17.4830  -28.0730   54.8170 C   0  0  0  0  0  3  0  0  0  0  0  0
  -17.4130  -29.5640   54.6620 C   0  0  0  0  0  0  0  0  0  0  0  0
  -18.5050  -30.4280   55.2200 C   0  0  0  0  0  0  0  0  0  0  0  0
  -19.6660  -29.8020   55.9330 N   0  0  0  0  0  0  0  0  0  0  0  0
  -16.7320  -27.4790   54.4330 H   0  0  0  0  0  0  0  0  0  0  0  0
  -16.6140  -29.9940   54.1710 H   0  0  0  0  0  0  0  0  0  0  0  0
  -20.8980  -27.6860   56.8020 O   0  0  0  0  0  0  0  0  0  0  0  0
  -22.6660  -25.9830   55.9520 C   0  0  0  0  0  3  0  0  0  0  0  0
  -23.0660  -24.5720   55.6400 C   0  0  0  0  0  0  0  0  0  0  0  0
  -22.0950  -23.4500   55.8660 C   0  0  0  0  0  0  0  0  0  0  0  0
  -20.7260  -23.7410   56.4040 C   0  0  0  0  0  0  0  0  0  0  0  0
  -20.3260  -25.1530   56.7160 C   0  0  0  0  0  0  0  0  0  0  0  0
  -21.2970  -26.2740   56.4900 C   0  0  0  0  0  0  0  0  0  0  0  0
  -24.0080  -24.3720   55.2690 H   0  0  0  0  0  0  0  0  0  0  0  0
  -22.3700  -22.4790   55.6510 H   0  0  0  0  0  0  0  0  0  0  0  0
  -20.0580  -22.9690   56.5600 H   0  0  0  0  0  0  0  0  0  0  0  0
  -19.3840  -25.3530   57.0870 H   0  0  0  0  0  0  0  0  0  0  0  0
  -23.6370  -27.1050   55.7250 C   0  0  0  0  0  3  0  0  0  0  0  0
  -24.5170  -27.1800   56.3290 H   0  0  0  0  0  0  0  0  0  0  0  0
  -23.8250  -26.3800   56.4900 H   0  0  0  0  0  0  0  0  0  0  0  0
  -22.7620  -29.4440   55.0090 N   0  0  0  0  0  0  0  0  0  0  0  0
  -23.3720  -28.1200   54.6540 C   0  0  0  0  0  0  0  0  0  0  0  0
  -23.7180  -27.8130   53.2270 O   0  0  0  0  0  0  0  0  0  0  0  0
  -22.5890  -30.1100   54.3050 H   0  0  0  0  0  0  0  0  0  0  0  0
  -22.5350  -29.6460   55.9450 H   0  0  0  0  0  0  0  0  0  0  0  0
  1 38  1  0
  1  2  2  0
  2 23  1  0
  3  2  1  0
  4  3  2  0
  5  4  1  0
  5  1  1  0
  6  4  1  0
  7  5  1  0
  8 15  1  0
  8 14  1  0
  9 16  1  0
 11 10  1  0
 12 22  1  0
 13  7  1  0
 17  9  1  0
 18 10  1  0
 19 11  1  0
 20 11  1  0
 21 12  1  0
 23 29  1  0
 24 23  2  0
 24 25  1  0
 25 26  2  0
 26 28  1  0
 26 27  1  0
 28 32  1  0
 29 33  1  0
 29 28  2  0
 30 24  1  0
 31 25  1  0
 34 42  1  0
 35 34  2  0
 36 35  1  0
 37 36  1  0
 37 38  2  0
 38 39  1  0
 39 34  2  0
 40 36  1  0
 41 37  1  0
 43 48  1  0
 44 45  1  0
 44 43  2  0
 45 46  2  0
 46 51  1  0
 46 47  1  0
 47 52  1  0
 48 47  2  0
 48 42  1  0
 49 44  1  0
 50 45  1  0
 53 54  1  0
 53 55  1  0
 56 60  1  0
 57 56  1  0
 57 53  1  0
 58 57  2  0
 59 56  1  0
M  END
>  <minimizedAffinity>  (215) 
-9.99981594

$$$$

     RDKit          3D

 65 62  0  0  0  0  0  0  0  0999 V2000
  -21.9850  -25.1500   56.1770 C   0  0  0  0  0  0  0  0  0  0  0  0
  -20.5350  -24.8100   56.3590 C   0  0  0  0  0  0  0  0  0  0  0  0
  -19.4960  -25.8880   56.2790 C   0  0  0  0  0  0  0  0  0  0  0  0
  -19.9060  -27.3070   56.0170 C   0  0  0  0  0  0  0  0  0  0  0  0
  -21.3550  -27.6480   55.8340 C   0  0  0  0  0  0  0  0  0  0  0  0
  -22.3950  -26.5690   55.9140 C   0  0  0  0  0  0  0  0  0  0  0  0
  -20.2530  -23.8340   56.5400 H   0  0  0  0  0  0  0  0  0  0  0  0
  -18.4980  -25.6540   56.4050 H   0  0  0  0  0  0  0  0  0  0  0  0
  -21.6380  -28.6240   55.6540 H   0  0  0  0  0  0  0  0  0  0  0  0
  -23.8440  -26.9090   55.7320 C   0  0  0  0  0  0  0  0  0  0  0  0
  -24.9020  -25.9210   56.1260 C   0  0  0  0  0  0  0  0  0  0  0  0
  -26.3510  -26.2620   55.9430 C   0  0  0  0  0  0  0  0  0  0  0  0
  -26.7430  -27.5900   55.3670 C   0  0  0  0  0  0  0  0  0  0  0  0
  -25.6850  -28.5780   54.9730 C   0  0  0  0  0  0  0  0  0  0  0  0
  -24.2360  -28.2380   55.1560 C   0  0  0  0  0  0  0  0  0  0  0  0
  -24.6320  -25.0070   56.5220 H   0  0  0  0  0  0  0  0  0  0  0  0
  -27.0790  -25.5820   56.2140 H   0  0  0  0  0  0  0  0  0  0  0  0
  -25.9550  -29.4920   54.5770 H   0  0  0  0  0  0  0  0  0  0  0  0
  -23.5080  -28.9170   54.8850 H   0  0  0  0  0  0  0  0  0  0  0  0
  -28.1920  -27.9300   55.1840 C   0  0  0  0  0  0  0  0  0  0  0  0
  -28.6220  -29.3650   55.1080 O   0  0  0  0  0  0  0  0  0  0  0  0
  -29.2120  -26.8350   55.0780 N   0  0  0  0  0  0  0  0  0  0  0  0
  -28.9310  -25.8940   55.1280 H   0  0  0  0  0  0  0  0  0  0  0  0
  -30.6620  -27.1760   54.8960 C   0  0  0  0  0  0  0  0  0  0  0  0
  -31.2380  -27.5260   55.7270 H   0  0  0  0  0  0  0  0  0  0  0  0
  -31.6960  -27.4190   54.7660 H   0  0  0  0  0  0  0  0  0  0  0  0
  -31.3040  -27.0250   53.5490 C   0  0  0  0  0  1  0  0  0  0  0  0
  -32.0490  -26.1890   52.5510 C   0  0  0  0  0  2  0  0  0  0  0  0
  -31.6700  -27.6000   52.2130 C   0  0  0  0  0  3  0  0  0  0  0  0
  -31.7620  -26.9180   52.5880 H   0  0  0  0  0  0  0  0  0  0  0  0
  -32.5120  -25.2630   52.2800 H   0  0  0  0  0  0  0  0  0  0  0  0
  -32.4220  -26.3460   51.5600 H   0  0  0  0  0  0  0  0  0  0  0  0
  -31.6650  -28.4180   51.5230 H   0  0  0  0  0  0  0  0  0  0  0  0
  -31.1550  -28.3880   52.7220 H   0  0  0  0  0  0  0  0  0  0  0  0
  -23.0240  -24.0720   56.2570 C   0  0  0  0  0  0  0  0  0  0  0  0
  -22.7310  -23.0590   56.4440 H   0  0  0  0  0  0  0  0  0  0  0  0
  -24.0580  -24.3150   56.1260 H   0  0  0  0  0  0  0  0  0  0  0  0
  -23.7660  -23.3020   56.3140 H   0  0  0  0  0  0  0  0  0  0  0  0
  -18.8660  -28.3860   55.9370 N   0  0  0  0  0  0  0  0  0  0  0  0
  -18.4730  -28.9510   54.6040 C   0  0  0  0  0  0  0  0  0  0  0  0
  -19.1180  -28.4370   53.3510 O   0  0  0  0  0  0  0  0  0  0  0  0
  -18.4430  -28.7230   56.7590 H   0  0  0  0  0  0  0  0  0  0  0  0
  -17.4330  -30.0290   54.5240 C   0  0  0  0  0  0  0  0  0  0  0  0
  -17.4380  -30.9920   53.3740 C   0  0  0  0  0  0  0  0  0  0  0  0
  -16.3990  -32.0700   53.2940 C   0  0  0  0  0  0  0  0  0  0  0  0
  -15.3540  -32.1860   54.3640 N   0  0  0  0  0  0  0  0  0  0  0  0
  -15.3490  -31.2240   55.5150 C   0  0  0  0  0  0  0  0  0  0  0  0
  -16.3890  -30.1450   55.5950 C   0  0  0  0  0  0  0  0  0  0  0  0
  -18.1570  -30.9120   52.6370 H   0  0  0  0  0  0  0  0  0  0  0  0
  -16.4020  -32.7320   52.5020 H   0  0  0  0  0  0  0  0  0  0  0  0
  -16.3850  -29.4830   56.3860 H   0  0  0  0  0  0  0  0  0  0  0  0
  -14.3050  -31.3400   56.5850 N   0  0  0  0  0  2  0  0  0  0  0  0
  -14.7130  -31.4120   58.0260 C   0  0  0  0  0  3  0  0  0  0  0  0
  -13.6690  -31.5280   59.0970 C   0  0  0  0  0  2  0  0  0  0  0  0
  -12.2160  -31.5710   58.7260 O   0  0  0  0  0  1  0  0  0  0  0  0
  -11.8080  -31.4990   57.2840 C   0  0  0  0  0  3  0  0  0  0  0  0
  -12.8520  -31.3830   56.2140 C   0  0  0  0  0  2  0  0  0  0  0  0
  -15.7500  -31.3810   58.2910 H   0  0  0  0  0  0  0  0  0  0  0  0
  -15.0050  -31.4640   59.0550 H   0  0  0  0  0  0  0  0  0  0  0  0
  -13.9600  -31.5800   60.1250 H   0  0  0  0  0  0  0  0  0  0  0  0
  -12.9240  -31.6110   59.8610 H   0  0  0  0  0  0  0  0  0  0  0  0
  -10.7710  -31.5300   57.0200 H   0  0  0  0  0  0  0  0  0  0  0  0
  -11.5170  -31.4470   56.2560 H   0  0  0  0  0  0  0  0  0  0  0  0
  -12.5610  -31.3310   55.1860 H   0  0  0  0  0  0  0  0  0  0  0  0
  -13.5980  -31.3000   55.4500 H   0  0  0  0  0  0  0  0  0  0  0  0
  1 35  1  0
  1  2  1  0
  2  7  1  0
  3  2  2  0
  3  8  1  0
  4  3  1  0
  5  6  1  0
  5  4  2  0
  6  1  2  0
  9  5  1  0
 10  6  1  0
 10 11  1  0
 11 16  1  0
 12 11  2  0
 12 17  1  0
 13 12  1  0
 14 15  1  0
 14 13  2  0
 15 10  2  0
 18 14  1  0
 19 15  1  0
 20 13  1  0
 21 20  2  0
 22 23  1  0
 22 20  1  0
 24 22  1  0
 24 25  1  0
 26 24  1  0
 27 24  1  0
 29 30  1  0
 29 34  1  0
 31 28  1  0
 32 28  1  0
 33 29  1  0
 35 38  1  0
 35 36  1  0
 37 35  1  0
 39  4  1  0
 39 42  1  0
 40 39  1  0
 41 40  2  0
 43 40  1  0
 43 48  2  0
 44 43  1  0
 45 44  2  0
 45 46  1  0
 46 47  2  0
 47 48  1  0
 47 52  1  0
 48 51  1  0
 49 44  1  0
 50 45  1  0
 52 53  1  0
 53 58  1  0
 53 59  1  0
 54 61  1  0
 54 60  1  0
 56 55  1  0
 62 56  1  0
 63 56  1  0
 64 57  1  0
 65 57  1  0
M  END
>  <minimizedAffinity>  (216) 
-10.6996317

$$$$

     RDKit          3D

 54 49  0  0  0  0  0  0  0  0999 V2000
  -20.2780  -28.0450   55.7100 N   0  0  0  0  0 15  0  0  0  0  0  0
  -20.3730  -26.5620   55.9190 C   0  0  0  0  0  2  0  0  0  0  0  0
  -18.9790  -26.0120   55.9880 N   0  0  0  0  0  2  0  0  0  0  0  0
  -18.0220  -27.1560   55.8220 C   0  0  0  0  0  0  0  0  0  0  0  0
  -16.5230  -27.2150   55.8060 C   0  0  0  0  0  0  0  0  0  0  0  0
  -15.8270  -28.5300   55.6180 N   0  0  0  0  0  0  0  0  0  0  0  0
  -16.6290  -29.7860   55.4460 C   0  0  0  0  0  0  0  0  0  0  0  0
  -18.1280  -29.7260   55.4630 C   0  0  0  0  0  0  0  0  0  0  0  0
  -18.8240  -28.4110   55.6510 C   0  0  0  0  0  3  0  0  0  0  0  0
  -18.6800  -30.5900   55.3450 H   0  0  0  0  0  0  0  0  0  0  0  0
  -21.6410  -25.7690   56.0370 C   0  0  0  0  0  0  0  0  0  0  0  0
  -23.0350  -26.3110   55.9180 N   0  0  0  0  0  0  0  0  0  0  0  0
  -23.9920  -25.1700   56.1030 O   0  0  0  0  0  0  0  0  0  0  0  0
  -23.1900  -23.9240   56.3350 N   0  0  0  0  0  0  0  0  0  0  0  0
  -21.7370  -24.2940   56.2950 C   0  0  0  0  0  0  0  0  0  0  0  0
  -20.5830  -23.3540   56.4790 N   0  0  0  0  0  0  0  0  0  0  0  0
  -19.6600  -23.6930   56.4350 H   0  0  0  0  0  0  0  0  0  0  0  0
  -20.7480  -22.3980   56.6450 H   0  0  0  0  0  0  0  0  0  0  0  0
  -21.4320  -28.9940   55.5840 C   0  0  0  0  0  3  0  0  0  0  0  0
  -21.8810  -29.4100   56.4620 H   0  0  0  0  0  0  0  0  0  0  0  0
  -21.0570  -28.7330   56.5520 H   0  0  0  0  0  0  0  0  0  0  0  0
  -21.9580  -29.3600   54.2280 C   0  0  0  0  0  0  0  0  0  0  0  0
  -21.5080  -28.9430   53.3500 H   0  0  0  0  0  0  0  0  0  0  0  0
  -22.7810  -30.0370   54.1380 H   0  0  0  0  0  0  0  0  0  0  0  0
  -22.3320  -29.6210   53.2600 H   0  0  0  0  0  0  0  0  0  0  0  0
  -15.9330  -31.1010   55.2580 C   0  0  0  0  0  3  0  0  0  0  0  0
  -16.1190  -31.6840   54.3810 H   0  0  0  0  0  0  0  0  0  0  0  0
  -15.4360  -32.0390   55.1240 H   0  0  0  0  0  0  0  0  0  0  0  0
  -14.9750  -31.5980   56.3000 N   0  0  0  0  0  1  0  0  0  0  0  0
  -13.4880  -31.4060   56.2940 C   0  0  0  0  0  3  0  0  0  0  0  0
  -12.9300  -32.0640   57.5210 C   0  0  0  0  0  2  0  0  0  0  0  0
  -14.0730  -32.6630   58.2860 C   0  0  0  0  0  2  0  0  0  0  0  0
  -15.3360  -32.3750   57.5310 C   0  0  0  0  0  2  0  0  0  0  0  0
  -12.9230  -30.8900   55.5450 H   0  0  0  0  0  0  0  0  0  0  0  0
  -12.4280  -31.3550   56.4330 H   0  0  0  0  0  0  0  0  0  0  0  0
  -11.8980  -32.1000   57.8010 H   0  0  0  0  0  0  0  0  0  0  0  0
  -12.6910  -32.5740   58.4310 H   0  0  0  0  0  0  0  0  0  0  0  0
  -13.9990  -33.2010   59.2070 H   0  0  0  0  0  0  0  0  0  0  0  0
  -14.9840  -33.0290   58.7080 H   0  0  0  0  0  0  0  0  0  0  0  0
  -16.3230  -32.6720   57.8210 H   0  0  0  0  0  0  0  0  0  0  0  0
  -16.1390  -32.0910   56.8820 H   0  0  0  0  0  0  0  0  0  0  0  0
  -15.7210  -25.9590   55.9770 C   0  0  0  0  0  0  0  0  0  0  0  0
  -14.9190  -24.7030   56.1490 C   0  0  0  0  0  0  0  0  0  0  0  0
  -14.1160  -23.4480   56.3200 C   0  0  0  0  0  0  0  0  0  0  0  0
  -14.5170  -23.0040   54.9450 C   0  0  0  0  0  0  0  0  0  0  0  0
  -15.1560  -23.6210   54.3480 H   0  0  0  0  0  0  0  0  0  0  0  0
  -14.1650  -22.0690   54.5600 H   0  0  0  0  0  0  0  0  0  0  0  0
  -14.8040  -22.6870   53.9630 H   0  0  0  0  0  0  0  0  0  0  0  0
  -13.7150  -23.8920   57.6960 C   0  0  0  0  0  0  0  0  0  0  0  0
  -13.0760  -23.2740   58.2920 H   0  0  0  0  0  0  0  0  0  0  0  0
  -14.0680  -24.8260   58.0800 H   0  0  0  0  0  0  0  0  0  0  0  0
  -13.4290  -24.2080   58.6770 H   0  0  0  0  0  0  0  0  0  0  0  0
  -13.3140  -22.1920   56.4920 O   0  0  0  0  0  0  0  0  0  0  0  0
  -13.2790  -21.5370   55.7770 H   0  0  0  0  0  0  0  0  0  0  0  0
  2  3  1  0
  2 11  1  0
  4  3  1  0
  5  4  1  0
  5 42  1  0
  6  5  2  0
  7  8  2  0
  7  6  1  0
  8  9  1  0
  9  4  2  0
 10  8  1  0
 11 15  1  0
 12 11  2  0
 12 13  1  0
 13 14  1  0
 15 14  2  0
 15 16  1  0
 16 18  1  0
 17 16  1  0
 19 20  1  0
 19 21  1  0
 22 19  1  0
 23 22  1  0
 24 22  1  0
 25 22  1  0
 26  7  1  0
 27 26  1  0
 28 26  1  0
 30 29  1  0
 30 35  1  0
 31 36  1  0
 31 37  1  0
 32 39  1  0
 32 38  1  0
 33 40  1  0
 34 30  1  0
 41 33  1  0
 42 43  3  0
 43 44  1  0
 44 53  1  0
 44 49  1  0
 45 44  1  0
 46 45  1  0
 47 45  1  0
 48 45  1  0
 49 51  1  0
 49 50  1  0
 49 52  1  0
 54 53  1  0
M  END
>  <minimizedAffinity>  (217) 
-8.97990894

$$$$

     RDKit          3D

 40 43  0  0  0  0  0  0  0  0999 V2000
  -16.8540  -27.6810   55.4110 C   0  0  0  0  0  0  0  0  0  0  0  0
  -15.6980  -28.6140   55.6180 S   0  0  0  0  0  0  0  0  0  0  0  0
  -16.2200  -30.0190   55.5570 C   0  0  0  0  0  0  0  0  0  0  0  0
  -17.6980  -29.9540   55.3120 C   0  0  0  0  0  0  0  0  0  0  0  0
  -18.0900  -28.5090   55.2220 C   0  0  0  0  0  0  0  0  0  0  0  0
  -18.3340  -30.7610   55.2220 H   0  0  0  0  0  0  0  0  0  0  0  0
  -15.4060  -31.2690   55.7130 N   0  0  0  0  0  0  0  0  0  0  0  0
  -15.2910  -32.3780   54.7100 C   0  0  0  0  0  0  0  0  0  0  0  0
  -14.3780  -33.4250   55.2770 N   0  0  0  0  0  0  0  0  0  0  0  0
  -13.9280  -32.9620   56.6320 C   0  0  0  0  0  0  0  0  0  0  0  0
  -13.0220  -33.5820   57.6540 C   0  0  0  0  0  0  0  0  0  0  0  0
  -12.7510  -32.8690   58.9460 C   0  0  0  0  0  0  0  0  0  0  0  0
  -13.3860  -31.5370   59.2160 C   0  0  0  0  0  0  0  0  0  0  0  0
  -14.2920  -30.9180   58.1930 C   0  0  0  0  0  0  0  0  0  0  0  0
  -14.5630  -31.6300   56.9010 C   0  0  0  0  0  0  0  0  0  0  0  0
  -15.7590  -32.4150   53.7910 H   0  0  0  0  0  0  0  0  0  0  0  0
  -12.5850  -34.4980   57.4690 H   0  0  0  0  0  0  0  0  0  0  0  0
  -12.1280  -33.2950   59.6500 H   0  0  0  0  0  0  0  0  0  0  0  0
  -13.2000  -31.0470   60.1050 H   0  0  0  0  0  0  0  0  0  0  0  0
  -14.7290  -30.0010   58.3790 H   0  0  0  0  0  0  0  0  0  0  0  0
  -18.0320  -25.3770   55.1860 N   0  0  0  0  0  0  0  0  0  0  0  0
  -16.7850  -26.1830   55.3960 C   0  0  0  0  0  0  0  0  0  0  0  0
  -15.4680  -25.4900   55.5910 O   0  0  0  0  0  0  0  0  0  0  0  0
  -18.8970  -25.8310   55.0580 H   0  0  0  0  0  0  0  0  0  0  0  0
  -17.9880  -24.3930   55.1760 H   0  0  0  0  0  0  0  0  0  0  0  0
  -19.4750  -27.9840   54.9850 O   0  0  0  0  0  0  0  0  0  0  0  0
  -20.4250  -27.8280   56.1360 C   0  0  0  0  0  0  0  0  0  0  0  0
  -20.3470  -28.4740   56.9860 H   0  0  0  0  0  0  0  0  0  0  0  0
  -21.1020  -27.7170   56.9560 H   0  0  0  0  0  0  0  0  0  0  0  0
  -21.4840  -26.7670   56.0950 C   0  0  0  0  0  0  0  0  0  0  0  0
  -21.1900  -25.3940   56.6220 C   0  0  0  0  0  0  0  0  0  0  0  0
  -22.2500  -24.3320   56.5810 C   0  0  0  0  0  0  0  0  0  0  0  0
  -23.6020  -24.6440   56.0130 C   0  0  0  0  0  0  0  0  0  0  0  0
  -23.8960  -26.0170   55.4860 C   0  0  0  0  0  0  0  0  0  0  0  0
  -22.8370  -27.0790   55.5270 C   0  0  0  0  0  0  0  0  0  0  0  0
  -23.1310  -28.4520   55.0000 Br  0  0  0  0  0  0  0  0  0  0  0  0
  -20.2590  -25.1790   57.0130 H   0  0  0  0  0  0  0  0  0  0  0  0
  -22.0470  -23.3880   56.9440 H   0  0  0  0  0  0  0  0  0  0  0  0
  -24.3310  -23.9140   55.9850 H   0  0  0  0  0  0  0  0  0  0  0  0
  -24.8270  -26.2320   55.0950 H   0  0  0  0  0  0  0  0  0  0  0  0
  1  2  1  0
  3  2  1  0
  3  7  1  0
  4  3  2  0
  5  4  1  0
  5  1  2  0
  6  4  1  0
  7 15  1  0
  8  9  2  0
  8  7  1  0
  9 10  1  0
 10 15  2  0
 10 11  1  0
 11 12  2  0
 12 13  1  0
 12 18  1  0
 13 19  1  0
 14 20  1  0
 14 13  2  0
 15 14  1  0
 16  8  1  0
 17 11  1  0
 21 22  1  0
 22  1  1  0
 22 23  2  0
 24 21  1  0
 25 21  1  0
 26  5  1  0
 26 27  1  0
 27 29  1  0
 27 28  1  0
 30 27  1  0
 30 31  1  0
 31 37  1  0
 32 31  2  0
 32 38  1  0
 33 32  1  0
 34 35  1  0
 34 33  2  0
 35 30  2  0
 36 35  1  0
 39 33  1  0
 40 34  1  0
M  END
>  <minimizedAffinity>  (218) 
-9.1230011

$$$$

     RDKit          3D

 38 41  0  0  1  0  0  0  0  0999 V2000
  -26.4130  -26.3660   55.5740 O   0  0  0  0  0  0  0  0  0  0  0  0
  -24.9270  -26.2100   55.7140 C   0  0  0  0  0  0  0  0  0  0  0  0
  -24.2050  -24.9470   56.0800 N   0  0  0  0  0  0  0  0  0  0  0  0
  -22.7350  -25.2460   56.1050 C   0  0  0  0  0  0  0  0  0  0  0  0
  -21.5410  -24.3880   56.4020 C   0  0  0  0  0  0  0  0  0  0  0  0
  -20.1620  -24.9760   56.3480 C   0  0  0  0  0  0  0  0  0  0  0  0
  -19.9770  -26.4220   55.9970 C   0  0  0  0  0  0  0  0  0  0  0  0
  -21.1710  -27.2810   55.7010 C   0  0  0  0  0  0  0  0  0  0  0  0
  -22.5490  -26.6930   55.7550 C   0  0  0  0  0  0  0  0  0  0  0  0
  -23.9050  -27.2890   55.5130 C   0  0  0  0  0  0  0  0  0  0  0  0
  -24.1870  -28.7130   55.1370 C   0  0  0  0  0  0  0  0  0  0  0  0
  -24.6210  -24.0760   56.2710 H   0  0  0  0  0  0  0  0  0  0  0  0
  -21.6680  -23.3920   56.6430 H   0  0  0  0  0  0  0  0  0  0  0  0
  -19.3410  -24.3850   56.5520 H   0  0  0  0  0  0  0  0  0  0  0  0
  -21.0430  -28.2760   55.4600 H   0  0  0  0  0  0  0  0  0  0  0  0
  -23.4090  -29.3800   55.0220 H   0  0  0  0  0  0  0  0  0  0  0  0
  -25.6010  -29.1660   54.9270 C   0  0  0  0  0  0  0  0  0  0  0  0
  -26.1960  -29.1560   53.5500 C   0  0  0  0  0  0  0  0  0  0  0  0
  -27.6100  -29.6100   53.3410 C   0  0  0  0  0  0  0  0  0  0  0  0
  -28.2050  -29.6000   51.9630 Cl  0  0  0  0  0  0  0  0  0  0  0  0
  -28.4300  -30.0740   54.5070 C   0  0  0  0  0  0  0  0  0  0  0  0
  -27.8360  -30.0840   55.8850 C   0  0  0  0  0  0  0  0  0  0  0  0
  -28.6560  -30.5480   57.0530 Cl  0  0  0  0  0  0  0  0  0  0  0  0
  -26.4210  -29.6300   56.0950 C   0  0  0  0  0  0  0  0  0  0  0  0
  -25.6320  -28.8370   52.7460 H   0  0  0  0  0  0  0  0  0  0  0  0
  -26.0120  -29.6370   57.0420 H   0  0  0  0  0  0  0  0  0  0  0  0
  -29.8450  -30.5280   54.2970 O   0  0  0  0  0  0  0  0  0  0  0  0
  -30.2160  -30.5220   53.4370 H   0  0  0  0  0  0  0  0  0  0  0  0
  -18.5980  -27.0100   55.9440 C   0  0  0  0  0  3  0  0  0  0  0  0
  -17.4610  -26.3210   56.6370 O   0  0  0  0  0  1  0  0  0  0  0  0
  -18.3560  -28.2880   55.1960 C   0  0  0  0  0  0  0  0  0  0  0  0
  -18.5030  -29.6740   55.7490 C   0  0  0  0  0  0  0  0  0  0  0  0
  -18.1630  -30.6470   54.6580 C   0  0  0  0  0  0  0  0  0  0  0  0
  -17.8050  -29.8610   53.4310 C   0  0  0  0  0  0  0  0  0  0  0  0
  -17.9250  -28.4040   53.7640 O   0  0  0  0  0  0  0  0  0  0  0  0
  -18.7890  -29.9170   56.7110 H   0  0  0  0  0  0  0  0  0  0  0  0
  -18.1730  -31.6750   54.7380 H   0  0  0  0  0  0  0  0  0  0  0  0
  -17.5270  -30.2550   52.5200 H   0  0  0  0  0  0  0  0  0  0  0  0
  1  2  2  0
  2  3  1  0
  3  4  1  0
  3 12  1  0
  4  5  1  0
  5 13  1  0
  6  5  2  0
  6 14  1  0
  7  6  1  0
  8  9  1  0
  8  7  2  0
  9  4  2  0
 10  2  1  0
 10  9  1  0
 11 10  2  0
 15  8  1  0
 16 11  1  0
 17 11  1  0
 17 24  1  0
 18 17  2  0
 19 18  1  0
 19 21  2  0
 20 19  1  0
 21 22  1  0
 22 24  2  0
 22 23  1  0
 24 26  1  0
 25 18  1  0
 27 21  1  0
 28 27  1  0
 29  7  1  0
 29 30  1  0
 31 32  2  0
 31 29  1  0
 32 36  1  0
 33 37  1  0
 33 32  1  0
 34 35  1  0
 34 33  2  0
 35 31  1  0
 38 34  1  0
M  END
>  <minimizedAffinity>  (219) 
-8.8238802

$$$$

     RDKit          3D

 30 31  0  0  0  0  0  0  0  0999 V2000
  -18.3250  -30.5780   55.8930 N   0  0  0  0  0  2  0  0  0  0  0  0
  -18.2050  -29.0980   55.6880 C   0  0  0  0  0  0  0  0  0  0  0  0
  -16.9060  -28.5070   55.2270 N   0  0  0  0  0  0  0  0  0  0  0  0
  -16.7860  -27.0260   55.0230 C   0  0  0  0  0  3  0  0  0  0  0  0
  -17.9650  -26.1360   55.2790 C   0  0  0  0  0  0  0  0  0  0  0  0
  -19.2640  -26.7260   55.7400 C   0  0  0  0  0  0  0  0  0  0  0  0
  -19.3840  -28.2070   55.9450 N   0  0  0  0  0  0  0  0  0  0  0  0
  -19.1780  -30.9660   56.1960 H   0  0  0  0  0  0  0  0  0  0  0  0
  -15.8910  -26.6190   54.7050 H   0  0  0  0  0  0  0  0  0  0  0  0
  -17.8820  -25.1160   55.1380 H   0  0  0  0  0  0  0  0  0  0  0  0
  -20.4430  -25.8360   55.9960 C   0  0  0  0  0  0  0  0  0  0  0  0
  -20.3890  -24.4140   56.4710 C   0  0  0  0  0  0  0  0  0  0  0  0
  -21.7970  -23.9100   56.5910 N   0  0  0  0  0  0  0  0  0  0  0  0
  -22.7220  -25.0210   56.1900 N   0  0  0  0  0  0  0  0  0  0  0  0
  -24.2180  -25.1020   56.1120 N   0  0  0  0  0  0  0  0  0  0  0  0
  -24.8770  -26.3740   55.6660 C   0  0  0  0  0  0  0  0  0  0  0  0
  -24.0410  -27.5630   55.2990 C   0  0  0  0  0  0  0  0  0  0  0  0
  -22.5450  -27.4820   55.3770 C   0  0  0  0  0  0  0  0  0  0  0  0
  -21.8860  -26.2110   55.8220 C   0  0  0  0  0  0  0  0  0  0  0  0
  -19.5330  -23.8770   56.6790 H   0  0  0  0  0  0  0  0  0  0  0  0
  -25.9060  -26.4300   55.6130 H   0  0  0  0  0  0  0  0  0  0  0  0
  -24.4950  -28.4380   54.9920 H   0  0  0  0  0  0  0  0  0  0  0  0
  -21.9700  -28.3010   55.1240 H   0  0  0  0  0  0  0  0  0  0  0  0
  -17.1460  -31.4700   55.6370 C   0  0  0  0  0  3  0  0  0  0  0  0
  -16.6340  -31.4230   54.6990 H   0  0  0  0  0  0  0  0  0  0  0  0
  -17.4750  -30.7870   54.8810 H   0  0  0  0  0  0  0  0  0  0  0  0
  -16.2220  -33.3830   57.7550 F   0  0  0  0  0  0  0  0  0  0  0  0
  -16.6840  -32.4260   56.6960 C   0  0  0  0  0  0  0  0  0  0  0  0
  -15.8970  -31.3270   57.3460 F   0  0  0  0  0  0  0  0  0  0  0  0
  -17.4710  -33.5250   56.0470 F   0  0  0  0  0  0  0  0  0  0  0  0
  1  8  1  0
  2  1  1  0
  2  7  2  0
  3  2  2  0
  4  3  1  0
  4  5  1  0
  5  6  2  0
  6  7  1  0
  6 11  1  0
  9  4  1  0
 10  5  1  0
 11 12  1  0
 12 13  2  0
 12 20  1  0
 14 13  1  0
 15 14  1  0
 16 15  2  0
 17 18  2  0
 17 16  1  0
 18 19  1  0
 19 11  2  0
 19 14  1  0
 21 16  1  0
 22 17  1  0
 23 18  1  0
 24 28  1  0
 25 24  1  0
 26 24  1  0
 28 29  1  0
 28 27  1  0
 30 28  1  0
M  END
>  <minimizedAffinity>  (220) 
-7.9677

$$$$

     RDKit          3D

 51 50  0  0  0  0  0  0  0  0999 V2000
  -20.3160  -28.0490   55.4670 N   0  0  0  0  0 15  0  0  0  0  0  0
  -20.3930  -26.5940   55.8210 C   0  0  0  0  0  2  0  0  0  0  0  0
  -18.9930  -26.0650   55.9240 N   0  0  0  0  0  2  0  0  0  0  0  0
  -18.0490  -27.1950   55.6330 C   0  0  0  0  0  0  0  0  0  0  0  0
  -16.5520  -27.2660   55.5890 C   0  0  0  0  0  0  0  0  0  0  0  0
  -15.8710  -28.5620   55.2620 N   0  0  0  0  0  0  0  0  0  0  0  0
  -16.6890  -29.7880   54.9800 C   0  0  0  0  0  0  0  0  0  0  0  0
  -18.1860  -29.7170   55.0240 C   0  0  0  0  0  0  0  0  0  0  0  0
  -18.8670  -28.4210   55.3510 C   0  0  0  0  0  3  0  0  0  0  0  0
  -18.7490  -30.5600   54.8300 H   0  0  0  0  0  0  0  0  0  0  0  0
  -21.6500  -25.8050   56.0360 C   0  0  0  0  0  0  0  0  0  0  0  0
  -23.0500  -26.3440   55.9860 N   0  0  0  0  0  0  0  0  0  0  0  0
  -23.9940  -25.2100   56.2570 O   0  0  0  0  0  0  0  0  0  0  0  0
  -23.1780  -23.9700   56.4740 N   0  0  0  0  0  0  0  0  0  0  0  0
  -21.7300  -24.3370   56.3370 C   0  0  0  0  0  0  0  0  0  0  0  0
  -20.5670  -23.4010   56.4770 N   0  0  0  0  0  0  0  0  0  0  0  0
  -19.6480  -23.7380   56.3700 H   0  0  0  0  0  0  0  0  0  0  0  0
  -20.7200  -22.4500   56.6770 H   0  0  0  0  0  0  0  0  0  0  0  0
  -21.4810  -28.9710   55.2650 C   0  0  0  0  0  3  0  0  0  0  0  0
  -21.9090  -29.4840   56.1010 H   0  0  0  0  0  0  0  0  0  0  0  0
  -21.0770  -28.8260   56.2450 H   0  0  0  0  0  0  0  0  0  0  0  0
  -22.0480  -29.1740   53.8910 C   0  0  0  0  0  0  0  0  0  0  0  0
  -21.6200  -28.6600   53.0550 H   0  0  0  0  0  0  0  0  0  0  0  0
  -22.8790  -29.8310   53.7470 H   0  0  0  0  0  0  0  0  0  0  0  0
  -22.4520  -29.3180   52.9110 H   0  0  0  0  0  0  0  0  0  0  0  0
  -15.7340  -26.0400   55.8710 C   0  0  0  0  0  0  0  0  0  0  0  0
  -14.9170  -24.8140   56.1540 C   0  0  0  0  0  0  0  0  0  0  0  0
  -14.1000  -23.5890   56.4360 C   0  0  0  0  0  0  0  0  0  0  0  0
  -14.3790  -23.0830   55.0520 C   0  0  0  0  0  0  0  0  0  0  0  0
  -14.9840  -23.6610   54.3830 H   0  0  0  0  0  0  0  0  0  0  0  0
  -13.9740  -22.1460   54.7320 H   0  0  0  0  0  0  0  0  0  0  0  0
  -14.5780  -22.7230   54.0640 H   0  0  0  0  0  0  0  0  0  0  0  0
  -13.8200  -24.0940   57.8200 C   0  0  0  0  0  0  0  0  0  0  0  0
  -13.2160  -23.5170   58.4890 H   0  0  0  0  0  0  0  0  0  0  0  0
  -14.2260  -25.0320   58.1400 H   0  0  0  0  0  0  0  0  0  0  0  0
  -13.6210  -24.4550   58.8080 H   0  0  0  0  0  0  0  0  0  0  0  0
  -13.2820  -22.3630   56.7180 O   0  0  0  0  0  0  0  0  0  0  0  0
  -13.1750  -21.6840   56.0340 H   0  0  0  0  0  0  0  0  0  0  0  0
  -16.0080  -31.0840   54.6530 O   0  0  0  0  0  0  0  0  0  0  0  0
  -15.4220  -31.9210   55.7510 C   0  0  0  0  0  0  0  0  0  0  0  0
  -15.9360  -32.7970   56.0880 H   0  0  0  0  0  0  0  0  0  0  0  0
  -15.0040  -32.5180   56.5350 H   0  0  0  0  0  0  0  0  0  0  0  0
  -14.1160  -31.5300   56.3760 C   0  0  0  0  0  0  0  0  0  0  0  0
  -13.8580  -31.8930   57.3490 H   0  0  0  0  0  0  0  0  0  0  0  0
  -13.1840  -31.2500   56.8220 H   0  0  0  0  0  0  0  0  0  0  0  0
  -13.1710  -30.6280   55.6380 N   0  0  0  0  0  0  0  0  0  0  0  0
  -13.4710  -29.6940   55.3590 H   0  0  0  0  0  0  0  0  0  0  0  0
  -11.7860  -31.1010   55.3100 C   0  0  0  0  0  0  0  0  0  0  0  0
  -11.1120  -30.4580   54.7830 H   0  0  0  0  0  0  0  0  0  0  0  0
  -11.4720  -32.0810   55.6020 H   0  0  0  0  0  0  0  0  0  0  0  0
  -10.7980  -31.4380   55.0750 H   0  0  0  0  0  0  0  0  0  0  0  0
  2  3  1  0
  2 11  1  0
  4  3  1  0
  5  4  2  0
  5 26  1  0
  6  5  1  0
  7  8  1  0
  7  6  2  0
  8  9  2  0
  9  4  1  0
 10  8  1  0
 11 15  1  0
 12 11  2  0
 12 13  1  0
 13 14  1  0
 15 14  2  0
 15 16  1  0
 16 18  1  0
 17 16  1  0
 19 20  1  0
 19 21  1  0
 22 19  1  0
 23 22  1  0
 24 22  1  0
 25 22  1  0
 26 27  3  0
 27 28  1  0
 28 37  1  0
 28 33  1  0
 29 28  1  0
 30 29  1  0
 31 29  1  0
 32 29  1  0
 33 35  1  0
 33 34  1  0
 33 36  1  0
 38 37  1  0
 39  7  1  0
 39 40  1  0
 40 41  1  0
 40 43  1  0
 40 42  1  0
 43 45  1  0
 43 44  1  0
 46 43  1  0
 47 46  1  0
 48 50  1  0
 48 46  1  0
 49 48  1  0
 51 48  1  0
M  END
>  <minimizedAffinity>  (221) 
-8.86352634

$$$$

     RDKit          3D

 53 50  0  0  1  0  0  0  0  0999 V2000
  -17.3080  -32.4810   55.7040 C   0  0  0  0  0  3  0  0  0  0  0  0
  -17.7950  -33.8680   55.4010 N   0  0  0  0  0  0  0  0  0  0  0  0
  -19.0640  -33.7510   54.6120 C   0  0  0  0  0  0  0  0  0  0  0  0
  -19.3630  -32.2930   54.4260 N   0  0  0  0  0  0  0  0  0  0  0  0
  -18.2780  -31.5070   55.1010 C   0  0  0  0  0  0  0  0  0  0  0  0
  -19.6320  -34.5370   54.2580 H   0  0  0  0  0  0  0  0  0  0  0  0
  -20.5410  -31.7200   53.6940 C   0  0  0  0  0  1  0  0  0  0  0  0
  -20.3390  -30.6190   52.6960 C   0  0  0  0  0  2  0  0  0  0  0  0
  -21.5170  -30.0460   51.9630 C   0  0  0  0  0  2  0  0  0  0  0  0
  -22.8950  -30.5750   52.2290 N   0  0  0  0  0  1  0  0  0  0  0  0
  -23.0960  -31.6770   53.2280 C   0  0  0  0  0  2  0  0  0  0  0  0
  -21.9190  -32.2490   53.9600 C   0  0  0  0  0  2  0  0  0  0  0  0
  -21.3800  -31.3110   53.1710 H   0  0  0  0  0  0  0  0  0  0  0  0
  -19.3570  -30.2410   52.5060 H   0  0  0  0  0  0  0  0  0  0  0  0
  -20.1960  -29.8330   51.9830 H   0  0  0  0  0  0  0  0  0  0  0  0
  -21.3740  -29.2610   51.2520 H   0  0  0  0  0  0  0  0  0  0  0  0
  -22.3560  -29.6380   51.4410 H   0  0  0  0  0  0  0  0  0  0  0  0
  -23.6950  -30.1850   51.7310 H   0  0  0  0  0  0  0  0  0  0  0  0
  -24.0790  -32.0540   53.4170 H   0  0  0  0  0  0  0  0  0  0  0  0
  -23.2390  -32.4620   53.9400 H   0  0  0  0  0  0  0  0  0  0  0  0
  -22.0620  -33.0350   54.6720 H   0  0  0  0  0  0  0  0  0  0  0  0
  -21.0780  -32.6570   54.4820 H   0  0  0  0  0  0  0  0  0  0  0  0
  -12.3560  -31.0740   58.7850 F   0  0  0  0  0  0  0  0  0  0  0  0
  -13.5940  -31.4250   58.0150 C   0  0  0  0  0  0  0  0  0  0  0  0
  -14.8690  -31.7320   58.7440 C   0  0  0  0  0  0  0  0  0  0  0  0
  -16.1070  -32.0830   57.9730 C   0  0  0  0  0  0  0  0  0  0  0  0
  -16.0700  -32.1290   56.4740 C   0  0  0  0  0  0  0  0  0  0  0  0
  -14.7950  -31.8230   55.7460 C   0  0  0  0  0  0  0  0  0  0  0  0
  -13.5570  -31.4710   56.5160 C   0  0  0  0  0  0  0  0  0  0  0  0
  -14.8940  -31.7000   59.7750 H   0  0  0  0  0  0  0  0  0  0  0  0
  -16.9840  -32.2940   58.4750 H   0  0  0  0  0  0  0  0  0  0  0  0
  -14.7700  -31.8540   54.7140 H   0  0  0  0  0  0  0  0  0  0  0  0
  -12.6800  -31.2600   56.0150 H   0  0  0  0  0  0  0  0  0  0  0  0
  -18.1790  -30.0120   55.1630 C   0  0  0  0  0  3  0  0  0  0  0  0
  -17.0530  -29.3050   54.4690 C   0  0  0  0  0  0  0  0  0  0  0  0
  -16.9550  -27.8090   54.5310 C   0  0  0  0  0  0  0  0  0  0  0  0
  -17.9820  -27.0210   55.2870 N   0  0  0  0  0  0  0  0  0  0  0  0
  -19.1080  -27.7290   55.9820 C   0  0  0  0  0  0  0  0  0  0  0  0
  -19.2070  -29.2240   55.9200 N   0  0  0  0  0  0  0  0  0  0  0  0
  -16.3460  -29.8480   53.9480 H   0  0  0  0  0  0  0  0  0  0  0  0
  -16.1800  -27.3230   54.0530 H   0  0  0  0  0  0  0  0  0  0  0  0
  -20.1360  -26.9400   56.7380 O   0  0  0  0  0  0  0  0  0  0  0  0
  -21.4000  -26.5060   56.0560 C   0  0  0  0  0  0  0  0  0  0  0  0
  -21.9670  -25.1440   56.3230 C   0  0  0  0  0  0  0  0  0  0  0  0
  -23.2300  -24.7110   55.6410 C   0  0  0  0  0  0  0  0  0  0  0  0
  -23.9270  -25.6390   54.6920 C   0  0  0  0  0  0  0  0  0  0  0  0
  -23.3600  -27.0030   54.4250 C   0  0  0  0  0  0  0  0  0  0  0  0
  -24.0570  -27.9310   53.4760 F   0  0  0  0  0  0  0  0  0  0  0  0
  -22.0960  -27.4360   55.1070 C   0  0  0  0  0  0  0  0  0  0  0  0
  -21.4880  -24.5050   56.9760 H   0  0  0  0  0  0  0  0  0  0  0  0
  -23.6210  -23.7720   55.8250 H   0  0  0  0  0  0  0  0  0  0  0  0
  -24.7960  -25.3420   54.2230 H   0  0  0  0  0  0  0  0  0  0  0  0
  -21.7070  -28.3740   54.9230 H   0  0  0  0  0  0  0  0  0  0  0  0
  1 27  1  0
  2  1  1  0
  3  2  2  0
  4  3  1  0
  4  5  2  0
  5  1  1  0
  6  3  1  0
 11 19  1  0
 11 20  1  0
 12 22  1  0
 12 21  1  0
 13  7  1  0
 14  8  1  0
 15  8  1  0
 16  9  1  0
 17  9  1  0
 18 10  1  0
 24 25  1  0
 24 23  1  0
 25 30  1  0
 26 31  1  0
 26 25  2  0
 27 26  1  0
 28 27  2  0
 28 29  1  0
 29 24  2  0
 32 28  1  0
 33 29  1  0
 34  5  1  0
 34 39  1  0
 35 36  2  0
 35 34  1  0
 36 37  1  0
 37 38  2  0
 38 42  1  0
 39 38  2  0
 40 35  1  0
 41 36  1  0
 43 44  1  0
 43 42  1  0
 44 50  1  0
 45 51  1  0
 45 44  2  0
 46 45  1  0
 47 46  2  0
 47 49  1  0
 48 47  1  0
 49 43  2  0
 52 46  1  0
 53 49  1  0
M  END
>  <minimizedAffinity>  (222) 
-9.17421818

$$$$

     RDKit          3D

 39 38  0  0  0  0  0  0  0  0999 V2000
  -21.5790  -25.6160   56.1290 C   0  0  0  0  0  0  0  0  0  0  0  0
  -22.7400  -24.7030   56.3920 C   0  0  0  0  0  0  0  0  0  0  0  0
  -24.1410  -25.1840   56.1570 C   0  0  0  0  0  0  0  0  0  0  0  0
  -24.3820  -26.5770   55.6590 C   0  0  0  0  0  0  0  0  0  0  0  0
  -23.2220  -27.4910   55.3960 C   0  0  0  0  0  0  0  0  0  0  0  0
  -21.8210  -27.0100   55.6310 C   0  0  0  0  0  0  0  0  0  0  0  0
  -22.5740  -23.7430   56.7350 H   0  0  0  0  0  0  0  0  0  0  0  0
  -24.9400  -24.5550   56.3380 H   0  0  0  0  0  0  0  0  0  0  0  0
  -23.3870  -28.4500   55.0530 H   0  0  0  0  0  0  0  0  0  0  0  0
  -20.6600  -27.9240   55.3680 C   0  0  0  0  0  0  0  0  0  0  0  0
  -20.2210  -28.9000   56.4180 C   0  0  0  0  0  0  0  0  0  0  0  0
  -19.0610  -29.8130   56.1550 C   0  0  0  0  0  0  0  0  0  0  0  0
  -18.3390  -29.7500   54.8420 C   0  0  0  0  0  0  0  0  0  0  0  0
  -17.1700  -30.5190   54.3010 N   0  0  0  0  0  0  0  0  0  0  0  0
  -16.8860  -30.0170   52.9150 N   0  0  0  0  0  0  0  0  0  0  0  0
  -17.8800  -28.9390   52.6010 C   0  0  0  0  0  0  0  0  0  0  0  0
  -18.7780  -28.7740   53.7910 C   0  0  0  0  0  0  0  0  0  0  0  0
  -19.9380  -27.8600   54.0550 C   0  0  0  0  0  0  0  0  0  0  0  0
  -20.7170  -28.9440   57.3220 H   0  0  0  0  0  0  0  0  0  0  0  0
  -18.7590  -30.4860   56.8790 H   0  0  0  0  0  0  0  0  0  0  0  0
  -16.6760  -31.2280   54.7720 H   0  0  0  0  0  0  0  0  0  0  0  0
  -17.9360  -28.4040   51.7200 H   0  0  0  0  0  0  0  0  0  0  0  0
  -20.2400  -27.1890   53.3320 H   0  0  0  0  0  0  0  0  0  0  0  0
  -20.1780  -25.1350   56.3640 C   0  0  0  0  0  0  0  0  0  0  0  0
  -20.0060  -24.1400   56.7200 H   0  0  0  0  0  0  0  0  0  0  0  0
  -19.3500  -25.7870   56.1770 H   0  0  0  0  0  0  0  0  0  0  0  0
  -19.1780  -24.7920   56.5320 H   0  0  0  0  0  0  0  0  0  0  0  0
  -25.7830  -27.0580   55.4240 C   0  0  0  0  0  0  0  0  0  0  0  0
  -26.0210  -28.4370   54.8850 O   0  0  0  0  0  0  0  0  0  0  0  0
  -26.9450  -26.1590   55.7280 N   0  0  0  0  0  2  0  0  0  0  0  0
  -26.7890  -25.2550   56.0810 H   0  0  0  0  0  0  0  0  0  0  0  0
  -28.3470  -26.6410   55.4930 C   0  0  0  0  0 15  0  0  0  0  0  0
  -29.4030  -27.1600   54.5630 C   0  0  0  0  0  2  0  0  0  0  0  0
  -29.7170  -26.9550   56.0150 C   0  0  0  0  0  3  0  0  0  0  0  0
  -29.3460  -26.9840   55.3250 H   0  0  0  0  0  0  0  0  0  0  0  0
  -29.7090  -27.4590   53.5820 H   0  0  0  0  0  0  0  0  0  0  0  0
  -30.4260  -27.4540   54.6690 H   0  0  0  0  0  0  0  0  0  0  0  0
  -30.4110  -27.0000   56.8280 H   0  0  0  0  0  0  0  0  0  0  0  0
  -29.1690  -26.6090   56.8660 H   0  0  0  0  0  0  0  0  0  0  0  0
  1 24  1  0
  1  2  1  0
  2  7  1  0
  3  8  1  0
  3  2  2  0
  4  3  1  0
  5  6  1  0
  5  4  2  0
  6  1  2  0
  9  5  1  0
 10  6  1  0
 10 11  1  0
 11 19  1  0
 12 11  2  0
 12 20  1  0
 13 12  1  0
 14 21  1  0
 14 13  1  0
 15 14  1  0
 16 15  2  0
 16 17  1  0
 17 18  1  0
 17 13  2  0
 18 10  2  0
 22 16  1  0
 23 18  1  0
 24 27  1  0
 24 25  1  0
 26 24  1  0
 28  4  1  0
 28 30  1  0
 29 28  2  0
 30 31  1  0
 33 37  1  0
 34 38  1  0
 34 39  1  0
 35 34  1  0
 36 33  1  0
M  END
>  <minimizedAffinity>  (223) 
-8.84388351

$$$$

     RDKit          3D

 71 68  0  0  0  0  0  0  0  0999 V2000
  -19.4400  -26.4240   55.7120 C   0  0  0  0  0  0  0  0  0  0  0  0
  -18.1350  -26.2610   56.4330 C   0  0  0  0  0  0  0  0  0  0  0  0
  -17.0100  -27.2180   56.1720 C   0  0  0  0  0  0  0  0  0  0  0  0
  -17.1900  -28.3370   55.1900 C   0  0  0  0  0  0  0  0  0  0  0  0
  -18.4950  -28.5000   54.4690 C   0  0  0  0  0  0  0  0  0  0  0  0
  -19.6200  -27.5430   54.7300 C   0  0  0  0  0  0  0  0  0  0  0  0
  -18.0110  -25.4910   57.1080 H   0  0  0  0  0  0  0  0  0  0  0  0
  -16.1110  -27.1060   56.6680 H   0  0  0  0  0  0  0  0  0  0  0  0
  -18.6180  -29.2700   53.7930 H   0  0  0  0  0  0  0  0  0  0  0  0
  -20.5180  -27.6550   54.2330 H   0  0  0  0  0  0  0  0  0  0  0  0
  -16.0640  -29.2940   54.9290 N   0  0  0  0  0  0  0  0  0  0  0  0
  -16.2010  -30.7360   55.3180 C   0  0  0  0  0  0  0  0  0  0  0  0
  -17.4620  -31.2220   55.9680 O   0  0  0  0  0  0  0  0  0  0  0  0
  -15.0750  -31.6930   55.0570 N   0  0  0  0  0  0  0  0  0  0  0  0
  -15.2370  -28.9760   54.5020 H   0  0  0  0  0  0  0  0  0  0  0  0
  -14.2480  -31.3750   54.6310 H   0  0  0  0  0  0  0  0  0  0  0  0
  -15.2120  -33.1350   55.4460 C   0  0  0  0  0  0  0  0  0  0  0  0
  -15.2650  -33.8910   54.6900 H   0  0  0  0  0  0  0  0  0  0  0  0
  -15.3090  -34.1640   55.7240 H   0  0  0  0  0  0  0  0  0  0  0  0
  -15.2740  -33.5180   56.8950 C   0  0  0  0  0  3  0  0  0  0  0  0
  -15.9620  -34.2700   57.2210 H   0  0  0  0  0  0  0  0  0  0  0  0
  -15.3180  -33.7920   57.9290 H   0  0  0  0  0  0  0  0  0  0  0  0
  -14.3700  -32.8480   57.8870 N   0  0  0  0  0 15  0  0  0  0  0  0
  -14.8710  -31.6850   58.6910 C   0  0  0  0  0  2  0  0  0  0  0  0
  -13.9680  -31.0150   59.6830 C   0  0  0  0  0  2  0  0  0  0  0  0
  -12.5640  -31.5080   59.8720 O   0  0  0  0  0  1  0  0  0  0  0  0
  -12.0630  -32.6710   59.0680 C   0  0  0  0  0  3  0  0  0  0  0  0
  -12.9660  -33.3410   58.0760 C   0  0  0  0  0  2  0  0  0  0  0  0
  -15.8720  -31.3330   58.5570 H   0  0  0  0  0  0  0  0  0  0  0  0
  -15.2280  -30.8550   59.2640 H   0  0  0  0  0  0  0  0  0  0  0  0
  -14.3250  -30.1850   60.2570 H   0  0  0  0  0  0  0  0  0  0  0  0
  -13.3230  -30.5370   60.3910 H   0  0  0  0  0  0  0  0  0  0  0  0
  -11.0610  -33.0230   59.2030 H   0  0  0  0  0  0  0  0  0  0  0  0
  -11.7060  -33.5010   58.4950 H   0  0  0  0  0  0  0  0  0  0  0  0
  -12.6090  -34.1710   57.5030 H   0  0  0  0  0  0  0  0  0  0  0  0
  -13.6100  -33.8190   57.3680 H   0  0  0  0  0  0  0  0  0  0  0  0
  -20.5650  -25.4670   55.9730 N   0  0  0  0  0  0  0  0  0  0  0  0
  -21.9870  -25.9310   55.8560 C   0  0  0  0  0  0  0  0  0  0  0  0
  -23.1120  -24.9640   56.0750 C   0  0  0  0  0  0  0  0  0  0  0  0
  -24.5340  -25.4280   55.9580 C   0  0  0  0  0  0  0  0  0  0  0  0
  -24.8300  -26.8600   55.6230 N   0  0  0  0  0  0  0  0  0  0  0  0
  -23.7050  -27.8270   55.4050 C   0  0  0  0  0  0  0  0  0  0  0  0
  -24.0010  -29.2590   55.0700 N   0  0  0  0  0  0  0  0  0  0  0  0
  -22.2830  -27.3630   55.5210 N   0  0  0  0  0  0  0  0  0  0  0  0
  -22.9090  -23.9780   56.3050 H   0  0  0  0  0  0  0  0  0  0  0  0
  -25.3080  -24.7620   56.1080 H   0  0  0  0  0  0  0  0  0  0  0  0
  -23.2630  -29.8940   54.9260 H   0  0  0  0  0  0  0  0  0  0  0  0
  -25.4230  -29.7230   54.9530 C   0  0  0  0  0  0  0  0  0  0  0  0
  -26.1800  -30.1370   56.1810 C   0  0  0  0  0  0  0  0  0  0  0  0
  -27.6010  -30.6010   56.0640 C   0  0  0  0  0  0  0  0  0  0  0  0
  -28.2660  -30.6520   54.7200 C   0  0  0  0  0  0  0  0  0  0  0  0
  -27.5090  -30.2390   53.4930 C   0  0  0  0  0  0  0  0  0  0  0  0
  -26.0870  -29.7750   53.6100 C   0  0  0  0  0  0  0  0  0  0  0  0
  -25.7220  -30.1010   57.1050 H   0  0  0  0  0  0  0  0  0  0  0  0
  -28.1220  -30.8850   56.9090 H   0  0  0  0  0  0  0  0  0  0  0  0
  -27.9660  -30.2740   52.5680 H   0  0  0  0  0  0  0  0  0  0  0  0
  -25.5660  -29.4900   52.7650 H   0  0  0  0  0  0  0  0  0  0  0  0
  -29.6870  -31.1160   54.6040 C   0  0  0  0  0  0  0  0  0  0  0  0
  -29.9400  -32.1300   54.8380 H   0  0  0  0  0  0  0  0  0  0  0  0
  -30.7010  -31.4480   54.5210 H   0  0  0  0  0  0  0  0  0  0  0  0
  -30.7540  -30.1610   54.1590 S   0  0  1  0  0  0  0  0  0  0  0  0
  -30.7370  -30.7780   52.7920 O   0  0  0  0  0  0  0  0  0  0  0  0
  -30.7720  -29.5440   55.5260 O   0  0  0  0  0  0  0  0  0  0  0  0
  -31.8210  -29.2050   53.7140 C   0  0  0  0  0  0  0  0  0  0  0  0
  -32.1910  -29.2450   52.7100 H   0  0  0  0  0  0  0  0  0  0  0  0
  -32.2130  -28.4830   54.3990 H   0  0  0  0  0  0  0  0  0  0  0  0
  -32.5830  -28.5230   53.3960 H   0  0  0  0  0  0  0  0  0  0  0  0
  -20.2690  -24.0460   56.3500 C   0  0  0  0  0  0  0  0  0  0  0  0
  -19.2550  -23.7140   56.4330 H   0  0  0  0  0  0  0  0  0  0  0  0
  -21.0720  -23.3630   56.5360 H   0  0  0  0  0  0  0  0  0  0  0  0
  -20.0580  -23.0320   56.6190 H   0  0  0  0  0  0  0  0  0  0  0  0
  1 37  1  0
  1  2  1  0
  2  7  1  0
  3  2  2  0
  3  8  1  0
  4  3  1  0
  5  6  1  0
  5  4  2  0
  6  1  2  0
  9  5  1  0
 10  6  1  0
 11  4  1  0
 11 12  1  0
 12 13  2  0
 14 12  1  0
 14 17  1  0
 15 11  1  0
 16 14  1  0
 17 19  1  0
 17 20  1  0
 18 17  1  0
 20 21  1  0
 20 22  1  0
 24 30  1  0
 25 31  1  0
 25 32  1  0
 27 33  1  0
 27 26  1  0
 29 24  1  0
 34 27  1  0
 35 28  1  0
 36 28  1  0
 37 68  1  0
 38 37  1  0
 38 39  1  0
 39 45  1  0
 40 39  2  0
 40 46  1  0
 41 40  1  0
 42 44  1  0
 42 41  2  0
 43 42  1  0
 44 38  2  0
 47 43  1  0
 48 43  1  0
 48 49  1  0
 49 54  1  0
 50 49  2  0
 50 55  1  0
 51 50  1  0
 52 53  1  0
 52 51  2  0
 53 48  2  0
 56 52  1  0
 57 53  1  0
 58 51  1  0
 58 59  1  0
 60 58  1  0
 61 58  1  0
 61 63  2  0
 62 61  2  0
 64 61  1  0
 64 66  1  0
 65 64  1  0
 67 64  1  0
 68 69  1  0
 68 70  1  0
 68 71  1  0
M  END
>  <minimizedAffinity>  (224) 
-10.2490368

$$$$

     RDKit          3D

 29 30  0  0  0  0  0  0  0  0999 V2000
  -18.2460  -29.2740   55.6320 C   0  0  0  0  0  0  0  0  0  0  0  0
  -19.6680  -29.7200   55.8070 C   0  0  0  0  0  0  0  0  0  0  0  0
  -20.7620  -28.7020   55.9400 C   0  0  0  0  0  0  0  0  0  0  0  0
  -20.4340  -27.2390   55.8970 C   0  0  0  0  0  0  0  0  0  0  0  0
  -19.0120  -26.7930   55.7220 C   0  0  0  0  0  0  0  0  0  0  0  0
  -17.9180  -27.8110   55.5890 C   0  0  0  0  0  0  0  0  0  0  0  0
  -19.8940  -30.7260   55.8370 H   0  0  0  0  0  0  0  0  0  0  0  0
  -21.7400  -29.0080   56.0610 H   0  0  0  0  0  0  0  0  0  0  0  0
  -18.7860  -25.7870   55.6920 H   0  0  0  0  0  0  0  0  0  0  0  0
  -21.5270  -26.2210   56.0300 C   0  0  0  0  0  0  0  0  0  0  0  0
  -22.9410  -26.5900   55.6900 C   0  0  0  0  0  0  0  0  0  0  0  0
  -24.0350  -25.5720   55.8230 C   0  0  0  0  0  0  0  0  0  0  0  0
  -23.7150  -24.1850   56.2950 N   0  0  0  0  0  0  0  0  0  0  0  0
  -22.3010  -23.8150   56.6340 C   0  0  0  0  0  0  0  0  0  0  0  0
  -21.2080  -24.8330   56.5020 C   0  0  0  0  0  0  0  0  0  0  0  0
  -23.1610  -27.5450   55.3660 H   0  0  0  0  0  0  0  0  0  0  0  0
  -25.0080  -25.8260   55.5900 H   0  0  0  0  0  0  0  0  0  0  0  0
  -22.0810  -22.8610   56.9590 H   0  0  0  0  0  0  0  0  0  0  0  0
  -20.2350  -24.5790   56.7350 H   0  0  0  0  0  0  0  0  0  0  0  0
  -16.4970  -27.3660   55.4130 C   0  0  0  0  0  0  0  0  0  0  0  0
  -15.3720  -28.3130   55.7100 N   0  0  0  0  0  0  0  0  0  0  0  0
  -16.2000  -25.9740   54.9410 O   0  0  0  0  0  0  0  0  0  0  0  0
  -15.5680  -29.2270   56.0200 H   0  0  0  0  0  0  0  0  0  0  0  0
  -14.4390  -28.0210   55.5950 H   0  0  0  0  0  0  0  0  0  0  0  0
  -17.1530  -30.2920   55.4990 O   0  0  0  0  0  0  0  0  0  0  0  0
  -17.2140  -31.5660   56.2890 C   0  0  0  0  0  0  0  0  0  0  0  0
  -18.0380  -31.7490   56.9470 H   0  0  0  0  0  0  0  0  0  0  0  0
  -16.4340  -32.2920   56.1940 H   0  0  0  0  0  0  0  0  0  0  0  0
  -17.2580  -32.4750   56.8530 H   0  0  0  0  0  0  0  0  0  0  0  0
  1  2  1  0
  2  7  1  0
  2  3  2  0
  3  8  1  0
  4  3  1  0
  4 10  1  0
  5  4  2  0
  6  1  2  0
  6  5  1  0
  9  5  1  0
 10 15  1  0
 11 12  1  0
 11 10  2  0
 12 13  2  0
 13 14  1  0
 14 18  1  0
 15 14  2  0
 15 19  1  0
 16 11  1  0
 17 12  1  0
 20  6  1  0
 20 21  1  0
 21 23  1  0
 22 20  2  0
 24 21  1  0
 25  1  1  0
 25 26  1  0
 26 29  1  0
 26 27  1  0
 28 26  1  0
M  END
>  <minimizedAffinity>  (225) 
-7.22898102

$$$$

     RDKit          3D

 33 36  0  0  0  0  0  0  0  0999 V2000
  -14.4110  -25.1740   56.0880 N   0  0  0  0  0  0  0  0  0  0  0  0
  -15.4570  -26.1980   55.7620 C   0  0  0  0  0  0  0  0  0  0  0  0
  -15.2400  -27.6790   55.6610 N   0  0  0  0  0  0  0  0  0  0  0  0
  -16.5530  -28.3170   55.3160 C   0  0  0  0  0  0  0  0  0  0  0  0
  -17.5810  -27.2320   55.2030 C   0  0  0  0  0  0  0  0  0  0  0  0
  -16.9040  -25.9220   55.4790 S   0  0  0  0  0  0  0  0  0  0  0  0
  -14.6520  -24.2210   56.1320 H   0  0  0  0  0  0  0  0  0  0  0  0
  -13.4830  -25.4550   56.2590 H   0  0  0  0  0  0  0  0  0  0  0  0
  -19.0320  -27.4220   54.8730 C   0  0  0  0  0  0  0  0  0  0  0  0
  -19.4360  -28.3810   53.7930 C   0  0  0  0  0  0  0  0  0  0  0  0
  -20.8860  -28.5710   53.4630 C   0  0  0  0  0  0  0  0  0  0  0  0
  -21.9330  -27.8020   54.2130 C   0  0  0  0  0  0  0  0  0  0  0  0
  -23.3840  -27.9930   53.8830 N   0  0  0  0  0  0  0  0  0  0  0  0
  -24.4310  -27.2240   54.6330 C   0  0  0  0  0  0  0  0  0  0  0  0
  -24.0270  -26.2640   55.7130 C   0  0  0  0  0  0  0  0  0  0  0  0
  -22.5760  -26.0740   56.0430 C   0  0  0  0  0  0  0  0  0  0  0  0
  -21.5290  -26.8430   55.2930 C   0  0  0  0  0  0  0  0  0  0  0  0
  -20.0790  -26.6530   55.6230 N   0  0  0  0  0  0  0  0  0  0  0  0
  -18.7150  -28.9100   53.2770 H   0  0  0  0  0  0  0  0  0  0  0  0
  -21.1640  -29.2310   52.7200 H   0  0  0  0  0  0  0  0  0  0  0  0
  -25.4290  -27.3550   54.4060 H   0  0  0  0  0  0  0  0  0  0  0  0
  -24.7480  -25.7350   56.2290 H   0  0  0  0  0  0  0  0  0  0  0  0
  -22.2980  -25.4140   56.7860 H   0  0  0  0  0  0  0  0  0  0  0  0
  -16.7940  -29.7840   55.1180 C   0  0  0  0  0  0  0  0  0  0  0  0
  -17.1690  -30.6480   56.2860 C   0  0  0  0  0  0  0  0  0  0  0  0
  -17.4110  -32.1150   56.0880 C   0  0  0  0  0  0  0  0  0  0  0  0
  -17.2780  -32.7190   54.7210 C   0  0  0  0  0  0  0  0  0  0  0  0
  -16.9020  -31.8560   53.5530 C   0  0  0  0  0  0  0  0  0  0  0  0
  -16.6610  -30.3890   53.7520 N   0  0  0  0  0  0  0  0  0  0  0  0
  -17.2610  -30.2320   57.2260 H   0  0  0  0  0  0  0  0  0  0  0  0
  -17.6690  -32.7080   56.8910 H   0  0  0  0  0  0  0  0  0  0  0  0
  -17.4440  -33.7280   54.5850 H   0  0  0  0  0  0  0  0  0  0  0  0
  -16.8110  -32.2720   52.6130 H   0  0  0  0  0  0  0  0  0  0  0  0
  1  7  1  0
  1  8  1  0
  2  1  1  0
  3  2  2  0
  4  3  1  0
  5  4  2  0
  5  6  1  0
  6  2  1  0
  9  5  1  0
  9 18  1  0
 10  9  2  0
 11 10  1  0
 11 12  2  0
 12 17  1  0
 13 12  1  0
 13 14  2  0
 14 15  1  0
 15 16  2  0
 15 22  1  0
 16 23  1  0
 17 18  2  0
 17 16  1  0
 19 10  1  0
 20 11  1  0
 21 14  1  0
 24  4  1  0
 24 25  1  0
 25 30  1  0
 26 25  2  0
 26 31  1  0
 27 26  1  0
 28 29  1  0
 28 27  2  0
 29 24  2  0
 32 27  1  0
 33 28  1  0
M  END
>  <minimizedAffinity>  (226) 
-7.4701376

$$$$

     RDKit          3D

 32 33  0  0  0  0  0  0  0  0999 V2000
  -16.5580  -29.5600   55.3640 C   0  0  0  0  0  0  0  0  0  0  0  0
  -15.2450  -28.8950   55.6500 C   0  0  0  0  0  0  0  0  0  0  0  0
  -15.1990  -27.4280   55.9610 N   0  0  0  0  0  0  0  0  0  0  0  0
  -16.4670  -26.6270   55.9850 C   0  0  0  0  0  0  0  0  0  0  0  0
  -17.7800  -27.2920   55.6980 C   0  0  0  0  0  0  0  0  0  0  0  0
  -17.8260  -28.7590   55.3880 C   0  0  0  0  0  0  0  0  0  0  0  0
  -14.3720  -29.4460   55.6330 H   0  0  0  0  0  0  0  0  0  0  0  0
  -16.4350  -25.6180   56.1980 H   0  0  0  0  0  0  0  0  0  0  0  0
  -18.7300  -29.2170   55.1910 H   0  0  0  0  0  0  0  0  0  0  0  0
  -17.2920  -31.9720   55.9930 N   0  0  0  0  0  0  0  0  0  0  0  0
  -16.6040  -31.0270   55.0530 C   0  0  0  0  0  0  0  0  0  0  0  0
  -15.9610  -31.5490   53.8030 O   0  0  0  0  0  0  0  0  0  0  0  0
  -17.7140  -31.6290   56.8140 H   0  0  0  0  0  0  0  0  0  0  0  0
  -17.3380  -33.4390   55.6820 C   0  0  0  0  0  0  0  0  0  0  0  0
  -17.8290  -34.1120   56.3530 H   0  0  0  0  0  0  0  0  0  0  0  0
  -16.8790  -33.8110   54.7900 H   0  0  0  0  0  0  0  0  0  0  0  0
  -17.3700  -34.4850   55.4610 H   0  0  0  0  0  0  0  0  0  0  0  0
  -19.0480  -26.4910   55.7230 C   0  0  0  0  0  0  0  0  0  0  0  0
  -20.3460  -27.1510   56.0840 C   0  0  0  0  0  0  0  0  0  0  0  0
  -19.0270  -25.4860   55.4910 H   0  0  0  0  0  0  0  0  0  0  0  0
  -20.3660  -28.1570   56.3150 H   0  0  0  0  0  0  0  0  0  0  0  0
  -21.6130  -26.3500   56.1080 C   0  0  0  0  0  0  0  0  0  0  0  0
  -21.5940  -24.9310   56.5930 C   0  0  0  0  0  0  0  0  0  0  0  0
  -22.8620  -24.1290   56.6170 C   0  0  0  0  0  0  0  0  0  0  0  0
  -24.1490  -24.7470   56.1560 C   0  0  0  0  0  0  0  0  0  0  0  0
  -24.1680  -26.1670   55.6710 C   0  0  0  0  0  0  0  0  0  0  0  0
  -22.9000  -26.9680   55.6470 C   0  0  0  0  0  0  0  0  0  0  0  0
  -22.9190  -28.3870   55.1610 Cl  0  0  0  0  0  0  0  0  0  0  0  0
  -20.7090  -24.5060   56.9100 H   0  0  0  0  0  0  0  0  0  0  0  0
  -22.8490  -23.1530   56.9510 H   0  0  0  0  0  0  0  0  0  0  0  0
  -25.0210  -24.1960   56.1730 H   0  0  0  0  0  0  0  0  0  0  0  0
  -25.0530  -26.5920   55.3540 H   0  0  0  0  0  0  0  0  0  0  0  0
  1  6  2  0
  1  2  1  0
  2  3  2  0
  3  4  1  0
  4  8  1  0
  5 18  1  0
  5  4  2  0
  6  5  1  0
  7  2  1  0
  9  6  1  0
 10 13  1  0
 11  1  1  0
 11 10  1  0
 12 11  2  0
 14 10  1  0
 14 15  1  0
 16 14  1  0
 17 14  1  0
 18 19  2  0
 19 22  1  0
 19 21  1  0
 20 18  1  0
 22 23  1  0
 23 24  2  0
 23 29  1  0
 24 30  1  0
 25 31  1  0
 25 24  1  0
 26 25  2  0
 27 26  1  0
 27 22  2  0
 28 27  1  0
 32 26  1  0
M  END
>  <minimizedAffinity>  (227) 
-7.76397181

$$$$

     RDKit          3D

 33 35  0  0  1  0  0  0  0  0999 V2000
  -19.6610  -29.6610   55.7000 C   0  0  0  0  0  0  0  0  0  0  0  0
  -20.3020  -28.3670   55.2940 N   0  0  0  0  0  0  0  0  0  0  0  0
  -20.2480  -30.4620   55.9790 H   0  0  0  0  0  0  0  0  0  0  0  0
  -21.7960  -28.2380   55.2940 N   0  0  0  0  0  0  0  0  0  0  0  0
  -22.4350  -26.9320   55.6630 C   0  0  0  0  0  3  0  0  0  0  0  0
  -21.5810  -25.7550   56.0310 N   0  0  0  0  0  0  0  0  0  0  0  0
  -22.2200  -24.4500   56.4000 C   0  0  0  0  0  0  0  0  0  0  0  0
  -23.7140  -24.3200   56.4010 N   0  0  0  0  0  2  0  0  0  0  0  0
  -24.5690  -25.4970   56.0330 C   0  0  0  0  0  0  0  0  0  0  0  0
  -26.0570  -25.6680   55.9450 N   0  0  0  0  0  0  0  0  0  0  0  0
  -26.3370  -27.0800   55.5220 N   0  0  0  0  0  0  0  0  0  0  0  0
  -25.0220  -27.7810   55.3490 C   0  0  0  0  0  0  0  0  0  0  0  0
  -23.9300  -26.8020   55.6640 C   0  0  0  0  0  0  0  0  0  0  0  0
  -22.3570  -29.0100   55.0530 H   0  0  0  0  0  0  0  0  0  0  0  0
  -21.6320  -23.6400   56.6530 H   0  0  0  0  0  0  0  0  0  0  0  0
  -26.7310  -24.9760   56.1320 H   0  0  0  0  0  0  0  0  0  0  0  0
  -24.8920  -28.7640   55.0620 H   0  0  0  0  0  0  0  0  0  0  0  0
  -15.8120  -28.6920   55.6430 C   0  0  0  0  0  0  0  0  0  0  0  0
  -17.3070  -28.5630   55.6440 C   0  0  0  0  0  0  0  0  0  0  0  0
  -18.1660  -29.7910   55.6990 C   0  0  0  0  0  0  0  0  0  0  0  0
  -17.5310  -31.1480   55.7550 C   0  0  0  0  0  0  0  0  0  0  0  0
  -16.0370  -31.2780   55.7540 C   0  0  0  0  0  0  0  0  0  0  0  0
  -15.1780  -30.0500   55.6990 C   0  0  0  0  0  0  0  0  0  0  0  0
  -17.7440  -27.6280   55.6060 H   0  0  0  0  0  0  0  0  0  0  0  0
  -18.1220  -31.9940   55.7930 H   0  0  0  0  0  0  0  0  0  0  0  0
  -15.6000  -32.2120   55.7920 H   0  0  0  0  0  0  0  0  0  0  0  0
  -13.6830  -30.1790   55.6980 O   0  0  0  0  0  0  0  0  0  0  0  0
  -13.1460  -29.4110   55.6630 H   0  0  0  0  0  0  0  0  0  0  0  0
  -14.9530  -27.4640   55.5880 O   0  0  0  0  0  0  0  0  0  0  0  0
  -15.5250  -26.1300   55.9710 C   0  0  0  0  0  0  0  0  0  0  0  0
  -16.5450  -26.0560   56.2840 H   0  0  0  0  0  0  0  0  0  0  0  0
  -14.9120  -25.2550   55.9310 H   0  0  0  0  0  0  0  0  0  0  0  0
  -15.9330  -25.1800   56.2450 H   0  0  0  0  0  0  0  0  0  0  0  0
  1  3  1  0
  2  4  1  0
  2  1  2  0
  5  4  1  0
  5 13  1  0
  5  6  1  0
  6  7  2  0
  7  8  1  0
  7 15  1  0
  9  8  1  0
 10  9  1  0
 10 16  1  0
 11 10  1  0
 12 11  2  0
 12 13  1  0
 13  9  2  0
 14  4  1  0
 17 12  1  0
 18 19  2  0
 18 23  1  0
 19 20  1  0
 20  1  1  0
 20 21  2  0
 21 25  1  0
 22 21  1  0
 22 26  1  0
 23 22  2  0
 24 19  1  0
 27 23  1  0
 28 27  1  0
 29 18  1  0
 29 30  1  0
 30 33  1  0
 30 31  1  0
 32 30  1  0
M  END
>  <minimizedAffinity>  (228) 
-7.71220589

$$$$

     RDKit          3D

 59 57  0  0  0  0  0  0  0  0999 V2000
  -18.2020  -30.9510   55.1900 C   0  0  0  0  0  0  0  0  0  0  0  0
  -17.3400  -32.0310   55.7730 C   0  0  0  0  0  0  0  0  0  0  0  0
  -17.9770  -33.3520   55.4620 N   0  0  0  0  0  0  0  0  0  0  0  0
  -19.2340  -33.0890   54.6870 C   0  0  0  0  0  0  0  0  0  0  0  0
  -19.3730  -31.6050   54.5180 N   0  0  0  0  0  0  0  0  0  0  0  0
  -19.8890  -33.8030   54.3310 H   0  0  0  0  0  0  0  0  0  0  0  0
  -20.4860  -30.8990   53.8040 C   0  0  0  0  0  2  0  0  0  0  0  0
  -20.1740  -29.8660   52.7620 C   0  0  0  0  0  2  0  0  0  0  0  0
  -21.2880  -29.1590   52.0480 C   0  0  0  0  0  2  0  0  0  0  0  0
  -22.7150  -29.4870   52.3750 N   0  0  0  0  0  2  0  0  0  0  0  0
  -23.0270  -30.5200   53.4170 C   0  0  0  0  0  3  0  0  0  0  0  0
  -21.9140  -31.2260   54.1310 C   0  0  0  0  0  2  0  0  0  0  0  0
  -21.2820  -30.3950   53.2940 H   0  0  0  0  0  0  0  0  0  0  0  0
  -19.1560  -29.6320   52.5290 H   0  0  0  0  0  0  0  0  0  0  0  0
  -19.9510  -29.1280   52.0190 H   0  0  0  0  0  0  0  0  0  0  0  0
  -21.0650  -28.4220   51.3050 H   0  0  0  0  0  0  0  0  0  0  0  0
  -22.0830  -28.6560   51.5390 H   0  0  0  0  0  0  0  0  0  0  0  0
  -23.4720  -29.0070   51.8900 H   0  0  0  0  0  0  0  0  0  0  0  0
  -24.0460  -30.7530   53.6500 H   0  0  0  0  0  0  0  0  0  0  0  0
  -23.2510  -31.2570   54.1590 H   0  0  0  0  0  0  0  0  0  0  0  0
  -22.1360  -31.9630   54.8730 H   0  0  0  0  0  0  0  0  0  0  0  0
  -21.1180  -31.7300   54.6400 H   0  0  0  0  0  0  0  0  0  0  0  0
  -16.0630  -31.8250   56.5340 C   0  0  0  0  0  0  0  0  0  0  0  0
  -14.7860  -31.5490   55.7960 C   0  0  0  0  0  0  0  0  0  0  0  0
  -13.5100  -31.3430   56.5570 C   0  0  0  0  0  0  0  0  0  0  0  0
  -13.5100  -31.4130   58.0550 C   0  0  0  0  0  0  0  0  0  0  0  0
  -12.2340  -31.2070   58.8150 F   0  0  0  0  0  0  0  0  0  0  0  0
  -14.7870  -31.6880   58.7930 C   0  0  0  0  0  0  0  0  0  0  0  0
  -16.0630  -31.8940   58.0320 C   0  0  0  0  0  0  0  0  0  0  0  0
  -14.7870  -31.5010   54.7650 H   0  0  0  0  0  0  0  0  0  0  0  0
  -12.6320  -31.1530   56.0490 H   0  0  0  0  0  0  0  0  0  0  0  0
  -14.7870  -31.7360   59.8240 H   0  0  0  0  0  0  0  0  0  0  0  0
  -16.9420  -32.0840   58.5400 H   0  0  0  0  0  0  0  0  0  0  0  0
  -18.6370  -27.1040   56.0620 C   0  0  0  0  0  0  0  0  0  0  0  0
  -17.4140  -26.5260   55.4140 N   0  0  0  0  0  0  0  0  0  0  0  0
  -16.4530  -27.4230   54.6910 C   0  0  0  0  0  3  0  0  0  0  0  0
  -16.7160  -28.8980   54.6160 C   0  0  0  0  0  0  0  0  0  0  0  0
  -17.9390  -29.4760   55.2640 C   0  0  0  0  0  0  0  0  0  0  0  0
  -18.9000  -28.5790   55.9870 N   0  0  0  0  0  0  0  0  0  0  0  0
  -15.6120  -27.0250   54.2450 H   0  0  0  0  0  0  0  0  0  0  0  0
  -16.0550  -29.5150   54.1190 H   0  0  0  0  0  0  0  0  0  0  0  0
  -19.5980  -26.2070   56.7850 O   0  0  0  0  0  0  0  0  0  0  0  0
  -23.9170  -26.0600   55.5330 C   0  0  0  0  0  3  0  0  0  0  0  0
  -23.2580  -24.8370   56.0980 C   0  0  0  0  0  0  0  0  0  0  0  0
  -21.8190  -24.8860   56.5150 C   0  0  0  0  0  0  0  0  0  0  0  0
  -21.0370  -26.1580   56.3670 C   0  0  0  0  0  0  0  0  0  0  0  0
  -21.6960  -27.3810   55.8020 C   0  0  0  0  0  0  0  0  0  0  0  0
  -23.1360  -27.3320   55.3850 C   0  0  0  0  0  0  0  0  0  0  0  0
  -23.7960  -23.9620   56.2000 H   0  0  0  0  0  0  0  0  0  0  0  0
  -21.3650  -24.0440   56.9040 H   0  0  0  0  0  0  0  0  0  0  0  0
  -21.1590  -28.2570   55.7000 H   0  0  0  0  0  0  0  0  0  0  0  0
  -23.5890  -28.1740   54.9960 H   0  0  0  0  0  0  0  0  0  0  0  0
  -25.3570  -26.0120   55.1150 C   0  0  0  0  0  3  0  0  0  0  0  0
  -25.6150  -25.7360   54.1130 H   0  0  0  0  0  0  0  0  0  0  0  0
  -24.5880  -25.7710   54.4110 H   0  0  0  0  0  0  0  0  0  0  0  0
  -26.4360  -26.3490   56.1010 C   0  0  0  0  0  0  0  0  0  0  0  0
  -26.1780  -26.6240   57.1030 H   0  0  0  0  0  0  0  0  0  0  0  0
  -27.4630  -26.3140   55.8040 H   0  0  0  0  0  0  0  0  0  0  0  0
  -27.2050  -26.5890   56.8050 H   0  0  0  0  0  0  0  0  0  0  0  0
  1 38  1  0
  1  2  2  0
  2 23  1  0
  3  2  1  0
  4  3  2  0
  5  4  1  0
  5  1  1  0
  6  4  1  0
  7  5  1  0
 10 11  1  0
 11 19  1  0
 11 20  1  0
 12 22  1  0
 12 21  1  0
 13  7  1  0
 14  8  1  0
 15  8  1  0
 16  9  1  0
 17  9  1  0
 18 10  1  0
 23 29  1  0
 24 23  2  0
 24 25  1  0
 25 26  2  0
 26 28  1  0
 26 27  1  0
 28 32  1  0
 29 33  1  0
 29 28  2  0
 30 24  1  0
 31 25  1  0
 34 42  1  0
 35 34  2  0
 36 35  1  0
 37 36  1  0
 37 38  2  0
 38 39  1  0
 39 34  2  0
 40 36  1  0
 41 37  1  0
 43 44  1  0
 44 49  1  0
 44 45  2  0
 45 50  1  0
 46 45  1  0
 46 42  1  0
 47 46  2  0
 48 43  2  0
 48 47  1  0
 51 47  1  0
 52 48  1  0
 53 56  1  0
 54 53  1  0
 55 53  1  0
 56 59  1  0
 56 57  1  0
 58 56  1  0
M  END
>  <minimizedAffinity>  (229) 
-9.32169819

$$$$

     RDKit          3D

 35 38  0  0  0  0  0  0  0  0999 V2000
  -22.8730  -25.3000   55.9110 C   0  0  0  0  0  0  0  0  0  0  0  0
  -23.0140  -23.8600   56.3090 N   0  0  0  0  0  0  0  0  0  0  0  0
  -21.6390  -23.3070   56.5380 N   0  0  0  0  0  0  0  0  0  0  0  0
  -20.6490  -24.4040   56.2820 C   0  0  0  0  0  0  0  0  0  0  0  0
  -21.4120  -25.6360   55.8940 C   0  0  0  0  0  0  0  0  0  0  0  0
  -21.4250  -22.3850   56.8090 H   0  0  0  0  0  0  0  0  0  0  0  0
  -19.6230  -24.3250   56.3580 H   0  0  0  0  0  0  0  0  0  0  0  0
  -20.8170  -26.9690   55.5500 C   0  0  0  0  0  0  0  0  0  0  0  0
  -20.6410  -28.0100   56.6160 C   0  0  0  0  0  0  0  0  0  0  0  0
  -20.0470  -29.3430   56.2720 C   0  0  0  0  0  0  0  0  0  0  0  0
  -19.6280  -29.6360   54.8620 C   0  0  0  0  0  0  0  0  0  0  0  0
  -19.0340  -30.9700   54.5180 N   0  0  0  0  0  0  0  0  0  0  0  0
  -18.6150  -31.2630   53.1070 C   0  0  0  0  0  0  0  0  0  0  0  0
  -18.7900  -30.2220   52.0410 C   0  0  0  0  0  0  0  0  0  0  0  0
  -19.3850  -28.8890   52.3850 C   0  0  0  0  0  0  0  0  0  0  0  0
  -19.8040  -28.5960   53.7960 C   0  0  0  0  0  0  0  0  0  0  0  0
  -20.3980  -27.2620   54.1400 N   0  0  0  0  0  0  0  0  0  0  0  0
  -20.9300  -27.8080   57.5860 H   0  0  0  0  0  0  0  0  0  0  0  0
  -19.9260  -30.0590   57.0050 H   0  0  0  0  0  0  0  0  0  0  0  0
  -18.2060  -32.1800   52.8710 H   0  0  0  0  0  0  0  0  0  0  0  0
  -18.5020  -30.4240   51.0710 H   0  0  0  0  0  0  0  0  0  0  0  0
  -19.5060  -28.1730   51.6520 H   0  0  0  0  0  0  0  0  0  0  0  0
  -24.8640  -28.3950   54.4240 C   0  0  0  0  0  0  0  0  0  0  0  0
  -26.2460  -28.1170   54.9380 C   0  0  0  0  0  0  0  0  0  0  0  0
  -26.5030  -26.9000   55.7770 C   0  0  0  0  0  0  0  0  0  0  0  0
  -25.3790  -25.9610   56.1010 C   0  0  0  0  0  0  0  0  0  0  0  0
  -23.9970  -26.2390   55.5870 C   0  0  0  0  0  0  0  0  0  0  0  0
  -23.7400  -27.4560   54.7490 N   0  0  0  0  0  0  0  0  0  0  0  0
  -27.0190  -28.7620   54.7150 H   0  0  0  0  0  0  0  0  0  0  0  0
  -27.4530  -26.7080   56.1300 H   0  0  0  0  0  0  0  0  0  0  0  0
  -25.5560  -25.1230   56.6780 H   0  0  0  0  0  0  0  0  0  0  0  0
  -24.6070  -29.6120   53.5860 C   0  0  0  0  0  0  0  0  0  0  0  0
  -25.4080  -30.2820   53.3550 H   0  0  0  0  0  0  0  0  0  0  0  0
  -23.6210  -29.8100   53.2200 H   0  0  0  0  0  0  0  0  0  0  0  0
  -24.4230  -30.4800   52.9890 H   0  0  0  0  0  0  0  0  0  0  0  0
  1  2  2  0
  2  3  1  0
  3  6  1  0
  4  7  1  0
  4  3  1  0
  5  1  1  0
  5  4  2  0
  8  5  1  0
  8  9  1  0
  9 18  1  0
 10  9  2  0
 10 19  1  0
 11 10  1  0
 12 11  1  0
 13 12  2  0
 14 15  2  0
 14 13  1  0
 15 16  1  0
 16 17  1  0
 16 11  2  0
 17  8  2  0
 20 13  1  0
 21 14  1  0
 22 15  1  0
 23 28  2  0
 23 24  1  0
 24 25  2  0
 25 26  1  0
 25 30  1  0
 26 31  1  0
 27  1  1  0
 27 26  2  0
 28 27  1  0
 29 24  1  0
 32 23  1  0
 33 32  1  0
 34 32  1  0
 35 32  1  0
M  END
>  <minimizedAffinity>  (230) 
-7.8501296

$$$$

     RDKit          3D

 41 44  0  0  0  0  0  0  0  0999 V2000
  -15.1990  -31.7940   57.9370 C   0  0  0  0  0  0  0  0  0  0  0  0
  -14.8340  -30.6520   57.0360 C   0  0  0  0  0  0  0  0  0  0  0  0
  -15.5550  -30.4650   55.7340 C   0  0  0  0  0  0  0  0  0  0  0  0
  -16.6400  -31.4210   55.3330 C   0  0  0  0  0  0  0  0  0  0  0  0
  -17.0040  -32.5630   56.2350 C   0  0  0  0  0  0  0  0  0  0  0  0
  -16.2840  -32.7500   57.5370 C   0  0  0  0  0  0  0  0  0  0  0  0
  -14.0880  -29.9950   57.3110 H   0  0  0  0  0  0  0  0  0  0  0  0
  -15.3040  -29.6800   55.1130 H   0  0  0  0  0  0  0  0  0  0  0  0
  -17.7510  -33.2200   55.9590 H   0  0  0  0  0  0  0  0  0  0  0  0
  -16.5350  -33.5350   58.1570 H   0  0  0  0  0  0  0  0  0  0  0  0
  -17.3610  -31.2340   54.0310 N   0  0  0  0  0  0  0  0  0  0  0  0
  -18.3670  -30.1320   53.8820 C   0  0  0  0  0  0  0  0  0  0  0  0
  -19.1620  -29.8240   52.6480 N   0  0  0  0  0  0  0  0  0  0  0  0
  -20.0420  -28.6460   52.9450 C   0  0  0  0  0  0  0  0  0  0  0  0
  -19.7910  -28.2250   54.3630 C   0  0  0  0  0  0  0  0  0  0  0  0
  -18.7560  -29.1430   54.9420 O   0  0  0  0  0  0  0  0  0  0  0  0
  -17.1730  -31.8340   53.2740 H   0  0  0  0  0  0  0  0  0  0  0  0
  -20.7040  -28.2020   52.2880 H   0  0  0  0  0  0  0  0  0  0  0  0
  -20.4580  -27.0870   55.0760 C   0  0  0  0  0  0  0  0  0  0  0  0
  -19.6290  -26.0590   55.7860 C   0  0  0  0  0  0  0  0  0  0  0  0
  -20.2960  -24.9190   56.4990 C   0  0  0  0  0  0  0  0  0  0  0  0
  -21.7920  -24.8090   56.5020 C   0  0  0  0  0  0  0  0  0  0  0  0
  -22.6210  -25.8380   55.7910 C   0  0  0  0  0  0  0  0  0  0  0  0
  -21.9540  -26.9770   55.0780 C   0  0  0  0  0  0  0  0  0  0  0  0
  -18.5990  -26.1340   55.7840 H   0  0  0  0  0  0  0  0  0  0  0  0
  -19.7250  -24.2120   56.9880 H   0  0  0  0  0  0  0  0  0  0  0  0
  -22.2500  -24.0260   56.9920 H   0  0  0  0  0  0  0  0  0  0  0  0
  -23.6510  -25.7620   55.7930 H   0  0  0  0  0  0  0  0  0  0  0  0
  -22.5250  -27.6840   54.5900 H   0  0  0  0  0  0  0  0  0  0  0  0
  -14.4780  -31.9810   59.2400 O   0  0  0  0  0  0  0  0  0  0  0  0
  -10.2730  -30.4540   59.7240 C   0  0  0  0  0  0  0  0  0  0  0  0
  -11.3270  -30.0780   60.7230 C   0  0  0  0  0  0  0  0  0  0  0  0
  -12.7290  -30.5870   60.5610 C   0  0  0  0  0  0  0  0  0  0  0  0
  -13.0770  -31.4720   59.4010 C   0  0  0  0  0  0  0  0  0  0  0  0
  -12.0230  -31.8480   58.4020 C   0  0  0  0  0  0  0  0  0  0  0  0
  -10.6210  -31.3390   58.5640 C   0  0  0  0  0  0  0  0  0  0  0  0
   -9.3090  -30.1030   59.8350 H   0  0  0  0  0  0  0  0  0  0  0  0
  -11.0880  -29.4690   61.5210 H   0  0  0  0  0  0  0  0  0  0  0  0
  -13.4540  -30.3290   61.2490 H   0  0  0  0  0  0  0  0  0  0  0  0
  -12.2620  -32.4570   57.6040 H   0  0  0  0  0  0  0  0  0  0  0  0
   -9.8960  -31.5970   57.8760 H   0  0  0  0  0  0  0  0  0  0  0  0
  1 30  1  0
  2  7  1  0
  2  1  2  0
  3  2  1  0
  4  3  2  0
  4  5  1  0
  5  6  2  0
  6  1  1  0
  6 10  1  0
  8  3  1  0
  9  5  1  0
 11  4  1  0
 12 11  1  0
 12 16  1  0
 13 14  1  0
 13 12  2  0
 14 15  2  0
 15 16  1  0
 15 19  1  0
 17 11  1  0
 18 14  1  0
 19 24  2  0
 19 20  1  0
 20 21  2  0
 21 22  1  0
 21 26  1  0
 22 27  1  0
 23 28  1  0
 23 22  2  0
 24 23  1  0
 25 20  1  0
 29 24  1  0
 30 34  1  0
 31 37  1  0
 31 32  1  0
 32 38  1  0
 33 32  2  0
 33 39  1  0
 34 33  1  0
 35 36  1  0
 35 34  2  0
 36 31  2  0
 40 35  1  0
 41 36  1  0
M  END
>  <minimizedAffinity>  (231) 
-8.46690464

$$$$

     RDKit          3D

 64 62  0  0  1  0  0  0  0  0999 V2000
  -25.6120  -26.6360   55.5980 C   0  0  0  0  0  3  0  0  0  0  0  0
  -26.8620  -25.9320   56.0400 N   0  0  0  0  0  0  0  0  0  0  0  0
  -28.0370  -26.7280   55.5550 C   0  0  0  0  0  0  0  0  0  0  0  0
  -27.5150  -27.9230   54.8140 N   0  0  0  0  0  0  0  0  0  0  0  0
  -26.0170  -27.8670   54.8400 C   0  0  0  0  0  0  0  0  0  0  0  0
  -29.0310  -26.4930   55.7050 H   0  0  0  0  0  0  0  0  0  0  0  0
  -28.3460  -28.9880   54.1600 C   0  0  0  0  0  1  0  0  0  0  0  0
  -28.5660  -28.9620   52.6780 C   0  0  0  0  0  2  0  0  0  0  0  0
  -29.3970  -30.0270   52.0240 C   0  0  0  0  0  2  0  0  0  0  0  0
  -30.0070  -31.1170   52.8540 N   0  0  0  0  0  1  0  0  0  0  0  0
  -29.7870  -31.1420   54.3380 C   0  0  0  0  0  2  0  0  0  0  0  0
  -28.9560  -30.0770   54.9900 C   0  0  0  0  0  2  0  0  0  0  0  0
  -28.9380  -29.7460   53.6940 H   0  0  0  0  0  0  0  0  0  0  0  0
  -28.1310  -28.1850   52.0850 H   0  0  0  0  0  0  0  0  0  0  0  0
  -28.7230  -28.9440   51.6190 H   0  0  0  0  0  0  0  0  0  0  0  0
  -29.5540  -30.0080   50.9660 H   0  0  0  0  0  0  0  0  0  0  0  0
  -29.9890  -30.7860   51.5580 H   0  0  0  0  0  0  0  0  0  0  0  0
  -30.5720  -31.8400   52.4100 H   0  0  0  0  0  0  0  0  0  0  0  0
  -30.2220  -31.9200   54.9300 H   0  0  0  0  0  0  0  0  0  0  0  0
  -29.6290  -31.1600   55.3960 H   0  0  0  0  0  0  0  0  0  0  0  0
  -28.7990  -30.0960   56.0500 H   0  0  0  0  0  0  0  0  0  0  0  0
  -28.3630  -29.3180   55.4560 H   0  0  0  0  0  0  0  0  0  0  0  0
  -19.9880  -24.8450   56.6730 F   0  0  0  0  0  0  0  0  0  0  0  0
  -21.3940  -25.2930   56.4050 C   0  0  0  0  0  0  0  0  0  0  0  0
  -22.5140  -24.2950   56.4140 C   0  0  0  0  0  0  0  0  0  0  0  0
  -23.9200  -24.7430   56.1460 C   0  0  0  0  0  0  0  0  0  0  0  0
  -24.2060  -26.1890   55.8670 C   0  0  0  0  0  0  0  0  0  0  0  0
  -23.0870  -27.1870   55.8570 C   0  0  0  0  0  0  0  0  0  0  0  0
  -21.6800  -26.7390   56.1260 C   0  0  0  0  0  0  0  0  0  0  0  0
  -22.3170  -23.3000   56.6060 H   0  0  0  0  0  0  0  0  0  0  0  0
  -24.6900  -24.0560   56.1520 H   0  0  0  0  0  0  0  0  0  0  0  0
  -23.2840  -28.1820   55.6650 H   0  0  0  0  0  0  0  0  0  0  0  0
  -20.9100  -27.4260   56.1190 H   0  0  0  0  0  0  0  0  0  0  0  0
  -25.0850  -28.8640   54.2190 C   0  0  0  0  0  0  0  0  0  0  0  0
  -25.3450  -30.3330   54.3760 C   0  0  0  0  0  0  0  0  0  0  0  0
  -24.4120  -31.3310   53.7540 C   0  0  0  0  0  3  0  0  0  0  0  0
  -23.2210  -30.8580   52.9750 N   0  0  0  0  0  0  0  0  0  0  0  0
  -22.9620  -29.3900   52.8170 C   0  0  0  0  0  0  0  0  0  0  0  0
  -23.8930  -28.3920   53.4390 N   0  0  0  0  0  0  0  0  0  0  0  0
  -26.1650  -30.6580   54.9120 H   0  0  0  0  0  0  0  0  0  0  0  0
  -24.5910  -32.3410   53.8630 H   0  0  0  0  0  0  0  0  0  0  0  0
  -21.7700  -28.9180   52.0380 O   0  0  0  0  0  0  0  0  0  0  0  0
  -20.3940  -29.0430   52.6220 C   0  0  0  0  0  0  0  0  0  0  0  0
  -19.9140  -28.0440   53.6330 C   0  0  0  0  0  0  0  0  0  0  0  0
  -18.5390  -28.1700   54.2170 C   0  0  0  0  0  0  0  0  0  0  0  0
  -17.6420  -29.2950   53.7910 C   0  0  0  0  0  0  0  0  0  0  0  0
  -18.1220  -30.2940   52.7790 C   0  0  0  0  0  0  0  0  0  0  0  0
  -19.4980  -30.1680   52.1950 C   0  0  0  0  0  0  0  0  0  0  0  0
  -20.5310  -27.2710   53.9260 H   0  0  0  0  0  0  0  0  0  0  0  0
  -18.2080  -27.4830   54.9120 H   0  0  0  0  0  0  0  0  0  0  0  0
  -17.5060  -31.0680   52.4860 H   0  0  0  0  0  0  0  0  0  0  0  0
  -19.8280  -30.8560   51.5000 H   0  0  0  0  0  0  0  0  0  0  0  0
  -16.2670  -29.4210   54.3740 O   0  0  0  0  0  0  0  0  0  0  0  0
  -16.0440  -30.2700   55.5900 C   0  0  0  0  0  0  0  0  0  0  0  0
  -14.7250  -30.2260   56.3040 C   0  0  0  0  0  0  0  0  0  0  0  0
  -14.5010  -31.0750   57.5200 C   0  0  0  0  0  0  0  0  0  0  0  0
  -15.5960  -31.9690   58.0230 C   0  0  0  0  0  0  0  0  0  0  0  0
  -16.9150  -32.0130   57.3090 C   0  0  0  0  0  0  0  0  0  0  0  0
  -17.1390  -31.1640   56.0930 C   0  0  0  0  0  0  0  0  0  0  0  0
  -13.9720  -29.6110   55.9580 H   0  0  0  0  0  0  0  0  0  0  0  0
  -13.5940  -31.0450   58.0110 H   0  0  0  0  0  0  0  0  0  0  0  0
  -15.4430  -32.5530   58.8590 H   0  0  0  0  0  0  0  0  0  0  0  0
  -17.6680  -32.6280   57.6550 H   0  0  0  0  0  0  0  0  0  0  0  0
  -18.0460  -31.1940   55.6020 H   0  0  0  0  0  0  0  0  0  0  0  0
  1 27  1  0
  1  2  1  0
  3  6  1  0
  3  2  2  0
  4  5  2  0
  4  3  1  0
  5  1  1  0
 11 19  1  0
 11 20  1  0
 12 22  1  0
 12 21  1  0
 13  7  1  0
 14  8  1  0
 15  8  1  0
 16  9  1  0
 17  9  1  0
 18 10  1  0
 24 25  1  0
 24 23  1  0
 25 30  1  0
 26 31  1  0
 26 25  2  0
 27 26  1  0
 28 27  2  0
 28 29  1  0
 29 24  2  0
 32 28  1  0
 33 29  1  0
 34 35  2  0
 34  5  1  0
 35 40  1  0
 36 41  1  0
 36 35  1  0
 37 36  1  0
 38 37  2  0
 38 39  2  0
 39 34  1  0
 42 43  1  0
 42 38  1  0
 43 44  1  0
 44 49  1  0
 44 45  2  0
 45 50  1  0
 46 45  1  0
 46 53  1  0
 47 46  2  0
 48 43  2  0
 48 47  1  0
 51 47  1  0
 52 48  1  0
 53 54  1  0
 54 59  2  0
 54 55  1  0
 55 56  2  0
 56 61  1  0
 56 57  1  0
 57 62  1  0
 58 63  1  0
 58 57  2  0
 59 58  1  0
 60 55  1  0
 64 59  1  0
M  END
>  <minimizedAffinity>  (232) 
-10.153738

$$$$

     RDKit          3D

 52 50  0  0  0  0  0  0  0  0999 V2000
  -21.7580  -25.2850   56.2000 C   0  0  0  0  0  0  0  0  0  0  0  0
  -22.9180  -24.3900   56.5210 C   0  0  0  0  0  0  0  0  0  0  0  0
  -24.3220  -24.8920   56.3510 C   0  0  0  0  0  0  0  0  0  0  0  0
  -24.5650  -26.2890   55.8610 C   0  0  0  0  0  0  0  0  0  0  0  0
  -23.4050  -27.1840   55.5410 C   0  0  0  0  0  0  0  0  0  0  0  0
  -22.0010  -26.6820   55.7100 C   0  0  0  0  0  0  0  0  0  0  0  0
  -22.7510  -23.4290   56.8580 H   0  0  0  0  0  0  0  0  0  0  0  0
  -25.1200  -24.2760   56.5720 H   0  0  0  0  0  0  0  0  0  0  0  0
  -23.5720  -28.1450   55.2040 H   0  0  0  0  0  0  0  0  0  0  0  0
  -20.8410  -27.5770   55.3900 C   0  0  0  0  0  0  0  0  0  0  0  0
  -20.4170  -28.6340   56.3660 C   0  0  0  0  0  0  0  0  0  0  0  0
  -19.2570  -29.5290   56.0460 C   0  0  0  0  0  0  0  0  0  0  0  0
  -18.5210  -29.3670   54.7490 C   0  0  0  0  0  0  0  0  0  0  0  0
  -18.9450  -28.3100   53.7730 C   0  0  0  0  0  0  0  0  0  0  0  0
  -20.1050  -27.4150   54.0930 C   0  0  0  0  0  0  0  0  0  0  0  0
  -20.9240  -28.7450   57.2590 H   0  0  0  0  0  0  0  0  0  0  0  0
  -18.9650  -30.2560   56.7180 H   0  0  0  0  0  0  0  0  0  0  0  0
  -18.4380  -28.1990   52.8800 H   0  0  0  0  0  0  0  0  0  0  0  0
  -20.3970  -26.6880   53.4210 H   0  0  0  0  0  0  0  0  0  0  0  0
  -17.3600  -30.2620   54.4290 C   0  0  0  0  0  0  0  0  0  0  0  0
  -16.9150  -30.4320   53.0070 O   0  0  0  0  0  0  0  0  0  0  0  0
  -16.6460  -30.9870   55.5300 N   0  0  0  0  0  4  0  0  0  0  0  0
  -16.9380  -30.8760   56.4630 H   0  0  0  0  0  0  0  0  0  0  0  0
  -15.4860  -31.8820   55.2100 C   0  0  0  0  0  0  0  0  0  0  0  0
  -15.6190  -32.7170   54.5530 H   0  0  0  0  0  0  0  0  0  0  0  0
  -14.6580  -32.5210   54.9810 H   0  0  0  0  0  0  0  0  0  0  0  0
  -14.1390  -31.6070   55.8100 C   0  0  0  0  0 15  0  0  0  0  0  0
  -12.7020  -31.2060   55.6490 C   0  0  0  0  0  2  0  0  0  0  0  0
  -13.2420  -31.5340   57.0100 C   0  0  0  0  0  3  0  0  0  0  0  0
  -13.1780  -31.4120   56.2380 H   0  0  0  0  0  0  0  0  0  0  0  0
  -11.8880  -30.9050   55.0220 H   0  0  0  0  0  0  0  0  0  0  0  0
  -11.8730  -31.0770   56.3140 H   0  0  0  0  0  0  0  0  0  0  0  0
  -13.0940  -31.6380   58.0640 H   0  0  0  0  0  0  0  0  0  0  0  0
  -14.1930  -31.8370   57.3930 H   0  0  0  0  0  0  0  0  0  0  0  0
  -20.3550  -24.7830   56.3700 C   0  0  0  0  0  0  0  0  0  0  0  0
  -20.1810  -23.7870   56.7190 H   0  0  0  0  0  0  0  0  0  0  0  0
  -19.5270  -25.4220   56.1410 H   0  0  0  0  0  0  0  0  0  0  0  0
  -19.3540  -24.4260   56.4910 H   0  0  0  0  0  0  0  0  0  0  0  0
  -25.9680  -26.7900   55.6920 C   0  0  0  0  0  0  0  0  0  0  0  0
  -27.1280  -25.9140   56.0610 O   0  0  0  0  0  0  0  0  0  0  0  0
  -26.2120  -28.1690   55.1530 N   0  0  0  0  0  0  0  0  0  0  0  0
  -25.4510  -28.7440   54.9100 H   0  0  0  0  0  0  0  0  0  0  0  0
  -27.6160  -28.6700   54.9830 C   0  0  0  0  0  0  0  0  0  0  0  0
  -28.6170  -29.0280   54.8620 H   0  0  0  0  0  0  0  0  0  0  0  0
  -28.3340  -29.2940   56.1430 C   0  0  0  0  0  0  0  0  0  0  0  0
  -27.8460  -29.3810   57.0910 H   0  0  0  0  0  0  0  0  0  0  0  0
  -29.3350  -29.6520   56.0220 H   0  0  0  0  0  0  0  0  0  0  0  0
  -28.8470  -29.7390   56.9700 H   0  0  0  0  0  0  0  0  0  0  0  0
  -28.3000  -28.5480   53.6540 C   0  0  0  0  0  0  0  0  0  0  0  0
  -29.3020  -28.9060   53.5330 H   0  0  0  0  0  0  0  0  0  0  0  0
  -27.7880  -28.1030   52.8270 H   0  0  0  0  0  0  0  0  0  0  0  0
  -28.7890  -28.4610   52.7060 H   0  0  0  0  0  0  0  0  0  0  0  0
  1 35  1  0
  1  2  1  0
  2  7  1  0
  3  2  2  0
  3  8  1  0
  4  3  1  0
  5  6  1  0
  5  4  2  0
  6  1  2  0
  9  5  1  0
 10  6  1  0
 10 11  1  0
 11 16  1  0
 12 11  2  0
 12 17  1  0
 13 12  1  0
 14 15  1  0
 14 13  2  0
 15 10  2  0
 18 14  1  0
 19 15  1  0
 20 13  1  0
 20 22  1  0
 21 20  2  0
 22 23  1  0
 24 22  2  0
 25 24  1  0
 26 24  1  0
 28 32  1  0
 29 34  1  0
 29 33  1  0
 30 29  1  0
 31 28  1  0
 35 38  1  0
 35 36  1  0
 37 35  1  0
 39  4  1  0
 39 40  2  0
 41 39  1  0
 42 41  1  0
 43 41  1  0
 43 45  1  0
 44 43  1  0
 45 48  1  0
 45 46  1  0
 47 45  1  0
 49 43  1  0
 50 49  1  0
 51 49  1  0
 52 49  1  0
M  END
>  <minimizedAffinity>  (233) 
-9.5026226

$$$$

     RDKit          3D

 48 47  0  0  1  0  0  0  0  0999 V2000
  -17.6410  -32.4690   55.0130 C   0  0  0  0  0  3  0  0  0  0  0  0
  -17.0620  -33.2870   56.1280 C   0  0  0  0  0  0  0  0  0  0  0  0
  -15.9830  -32.7120   56.9980 C   0  0  0  0  0  0  0  0  0  0  0  0
  -15.4850  -31.3190   56.7520 C   0  0  0  0  0  0  0  0  0  0  0  0
  -16.0650  -30.5010   55.6360 C   0  0  0  0  0  0  0  0  0  0  0  0
  -17.1430  -31.0760   54.7660 C   0  0  0  0  0  0  0  0  0  0  0  0
  -17.4050  -34.2460   56.2980 H   0  0  0  0  0  0  0  0  0  0  0  0
  -15.5850  -33.2750   57.7660 H   0  0  0  0  0  0  0  0  0  0  0  0
  -17.5420  -30.5130   53.9990 H   0  0  0  0  0  0  0  0  0  0  0  0
  -15.5660  -29.1080   55.3900 N   0  0  0  0  0  0  0  0  0  0  0  0
  -16.5300  -27.9590   55.3730 C   0  0  0  0  0  0  0  0  0  0  0  0
  -16.1800  -26.5190   55.1410 N   0  0  0  0  0  0  0  0  0  0  0  0
  -17.4470  -25.7170   55.2090 C   0  0  0  0  0  0  0  0  0  0  0  0
  -18.5790  -26.6620   55.4830 C   0  0  0  0  0  0  0  0  0  0  0  0
  -18.0120  -28.0470   55.5840 O   0  0  0  0  0  0  0  0  0  0  0  0
  -14.6070  -28.9480   55.2400 H   0  0  0  0  0  0  0  0  0  0  0  0
  -17.5250  -24.6960   55.0880 H   0  0  0  0  0  0  0  0  0  0  0  0
  -20.0240  -26.2880   55.6300 C   0  0  0  0  0  0  0  0  0  0  0  0
  -20.4060  -25.0610   56.4030 C   0  0  0  0  0  0  0  0  0  0  0  0
  -21.8510  -24.6870   56.5500 C   0  0  0  0  0  0  0  0  0  0  0  0
  -22.9140  -25.5390   55.9250 C   0  0  0  0  0  0  0  0  0  0  0  0
  -22.5320  -26.7670   55.1510 C   0  0  0  0  0  0  0  0  0  0  0  0
  -21.0870  -27.1410   55.0040 C   0  0  0  0  0  0  0  0  0  0  0  0
  -19.6740  -24.4740   56.8340 H   0  0  0  0  0  0  0  0  0  0  0  0
  -22.1140  -23.8420   57.0830 H   0  0  0  0  0  0  0  0  0  0  0  0
  -23.9080  -25.2820   56.0260 H   0  0  0  0  0  0  0  0  0  0  0  0
  -20.8250  -27.9860   54.4720 H   0  0  0  0  0  0  0  0  0  0  0  0
  -23.5960  -27.6200   54.5250 C   0  0  0  0  0  3  0  0  0  0  0  0
  -23.4710  -28.0410   53.0900 O   0  0  0  0  0  1  0  0  0  0  0  0
  -24.7830  -28.0510   55.3330 C   0  0  0  0  0  0  0  0  0  0  0  0
  -24.8720  -27.7510   56.3560 H   0  0  0  0  0  0  0  0  0  0  0  0
  -25.5420  -28.6590   54.8860 H   0  0  0  0  0  0  0  0  0  0  0  0
  -25.6310  -28.3590   55.9100 H   0  0  0  0  0  0  0  0  0  0  0  0
  -18.7200  -33.0450   54.1430 S   0  0  0  0  0  0  0  0  0  0  0  0
  -18.5540  -31.9040   53.1830 O   0  0  0  0  0 15  0  0  0  0  0  0
  -18.8860  -34.1850   55.1030 O   0  0  0  0  0  0  0  0  0  0  0  0
  -19.7980  -33.6200   53.2730 C   0  0  0  0  0  3  0  0  0  0  0  0
  -19.5460  -34.3110   52.4950 H   0  0  0  0  0  0  0  0  0  0  0  0
  -18.7770  -33.9000   53.1160 H   0  0  0  0  0  0  0  0  0  0  0  0
  -21.2290  -33.2270   53.4940 C   0  0  0  0  0  0  0  0  0  0  0  0
  -21.9980  -33.6370   52.8730 H   0  0  0  0  0  0  0  0  0  0  0  0
  -21.4800  -32.5360   54.2720 H   0  0  0  0  0  0  0  0  0  0  0  0
  -22.2500  -32.9470   53.6510 H   0  0  0  0  0  0  0  0  0  0  0  0
  -14.4070  -30.7430   57.6220 O   0  0  0  0  0  0  0  0  0  0  0  0
  -14.3360  -31.1150   59.0730 C   0  0  0  0  0  0  0  0  0  0  0  0
  -13.5660  -30.7050   59.6930 H   0  0  0  0  0  0  0  0  0  0  0  0
  -15.0540  -31.7910   59.4880 H   0  0  0  0  0  0  0  0  0  0  0  0
  -14.2850  -31.3800   60.1090 H   0  0  0  0  0  0  0  0  0  0  0  0
  1  2  1  0
  2  7  1  0
  2  3  2  0
  3  8  1  0
  4  3  1  0
  4 44  1  0
  5  4  2  0
  6  1  2  0
  6  5  1  0
  9  6  1  0
 10  5  1  0
 11 10  1  0
 11 15  1  0
 12 13  1  0
 12 11  2  0
 13 14  2  0
 14 15  1  0
 14 18  1  0
 16 10  1  0
 17 13  1  0
 18 19  1  0
 19 20  2  0
 19 24  1  0
 20 25  1  0
 21 26  1  0
 21 20  1  0
 22 21  2  0
 23 22  1  0
 23 18  2  0
 27 23  1  0
 28 29  1  0
 28 22  1  0
 28 30  1  0
 30 33  1  0
 30 31  1  0
 32 30  1  0
 34 36  2  0
 37 40  1  0
 38 37  1  0
 39 37  1  0
 40 43  1  0
 40 42  1  0
 41 40  1  0
 44 45  1  0
 45 47  1  0
 45 46  1  0
 45 48  1  0
M  END
>  <minimizedAffinity>  (234) 
-8.5911684

$$$$

     RDKit          3D

 55 56  0  0  0  0  0  0  0  0999 V2000
  -17.3040  -28.9990   54.8850 C   0  0  0  0  0  0  0  0  0  0  0  0
  -17.7760  -27.8340   55.7010 C   0  0  0  0  0  0  0  0  0  0  0  0
  -19.0660  -27.3460   55.1110 C   0  0  0  0  0  0  0  0  0  0  0  0
  -19.3910  -28.2120   53.9290 S   0  0  0  0  0  0  0  0  0  0  0  0
  -18.3010  -29.2340   53.7900 C   0  0  0  0  0  0  0  0  0  0  0  0
  -17.2980  -27.4360   56.5240 H   0  0  0  0  0  0  0  0  0  0  0  0
  -19.8870  -26.1960   55.6130 N   0  0  0  0  0  0  0  0  0  0  0  0
  -19.3590  -24.8730   56.0830 C   0  0  0  0  0  0  0  0  0  0  0  0
  -20.5260  -24.0260   56.4940 N   0  0  0  0  0  0  0  0  0  0  0  0
  -21.7780  -24.8260   56.2780 C   0  0  0  0  0  0  0  0  0  0  0  0
  -23.2250  -24.5060   56.5070 C   0  0  0  0  0  0  0  0  0  0  0  0
  -24.2780  -25.5270   56.1910 C   0  0  0  0  0  0  0  0  0  0  0  0
  -23.8830  -26.8680   55.6470 C   0  0  0  0  0  0  0  0  0  0  0  0
  -22.4350  -27.1880   55.4180 C   0  0  0  0  0  0  0  0  0  0  0  0
  -21.3830  -26.1670   55.7340 C   0  0  0  0  0  0  0  0  0  0  0  0
  -18.3660  -24.5950   56.1180 H   0  0  0  0  0  0  0  0  0  0  0  0
  -23.4970  -23.5840   56.8810 H   0  0  0  0  0  0  0  0  0  0  0  0
  -25.2740  -25.3070   56.3480 H   0  0  0  0  0  0  0  0  0  0  0  0
  -22.1630  -28.1100   55.0430 H   0  0  0  0  0  0  0  0  0  0  0  0
  -24.9350  -27.8890   55.3310 O   0  0  0  0  0  0  0  0  0  0  0  0
  -24.5410  -29.3050   55.0350 C   0  0  0  0  0  3  0  0  0  0  0  0
  -24.3070  -29.9750   55.8360 H   0  0  0  0  0  0  0  0  0  0  0  0
  -24.2600  -30.3160   54.8230 H   0  0  0  0  0  0  0  0  0  0  0  0
  -24.4750  -29.7840   53.6150 C   0  0  0  0  0  3  0  0  0  0  0  0
  -25.3030  -29.1910   53.9400 H   0  0  0  0  0  0  0  0  0  0  0  0
  -23.3130  -30.6160   53.1570 C   0  0  0  0  0  0  0  0  0  0  0  0
  -22.3510  -30.4830   53.6050 H   0  0  0  0  0  0  0  0  0  0  0  0
  -22.4850  -31.2090   52.8300 H   0  0  0  0  0  0  0  0  0  0  0  0
  -23.5010  -31.6330   52.0710 O   0  0  0  0  0  0  0  0  0  0  0  0
  -22.7500  -32.1710   51.7750 H   0  0  0  0  0  0  0  0  0  0  0  0
  -25.5690  -29.4300   52.6520 O   0  0  0  0  0  0  0  0  0  0  0  0
  -25.5260  -29.7400   51.7340 H   0  0  0  0  0  0  0  0  0  0  0  0
  -18.2240  -30.3010   52.7400 C   0  0  0  0  0  0  0  0  0  0  0  0
  -16.8920  -30.8650   52.3390 N   0  0  0  0  0  0  0  0  0  0  0  0
  -19.4770  -30.8060   52.0890 O   0  0  0  0  0  0  0  0  0  0  0  0
  -16.8420  -31.5660   51.6500 H   0  0  0  0  0  0  0  0  0  0  0  0
  -16.0690  -30.5340   52.7660 H   0  0  0  0  0  0  0  0  0  0  0  0
  -16.0530  -29.7930   55.1220 O   0  0  0  0  0  1  0  0  0  0  0  0
  -16.0800  -30.9800   56.0400 C   0  0  0  0  0  3  0  0  0  0  0  0
  -16.8840  -30.8150   55.3530 H   0  0  0  0  0  0  0  0  0  0  0  0
  -14.9530  -31.2100   57.0020 C   0  0  0  0  0  0  0  0  0  0  0  0
  -15.1320  -30.8950   58.4580 C   0  0  0  0  0  0  0  0  0  0  0  0
  -14.0040  -31.1250   59.4190 C   0  0  0  0  0  0  0  0  0  0  0  0
  -12.6960  -31.6700   58.9240 C   0  0  0  0  0  0  0  0  0  0  0  0
  -12.5170  -31.9840   57.4690 C   0  0  0  0  0  0  0  0  0  0  0  0
  -13.6450  -31.7540   56.5080 C   0  0  0  0  0  0  0  0  0  0  0  0
  -13.4660  -32.0680   55.0520 Cl  0  0  0  0  0  0  0  0  0  0  0  0
  -16.0320  -30.5210   58.7970 H   0  0  0  0  0  0  0  0  0  0  0  0
  -14.1270  -30.9090   60.4210 H   0  0  0  0  0  0  0  0  0  0  0  0
  -11.9200  -31.8280   59.5860 H   0  0  0  0  0  0  0  0  0  0  0  0
  -11.6170  -32.3590   57.1290 H   0  0  0  0  0  0  0  0  0  0  0  0
  -17.2350  -31.9350   55.9950 C   0  0  0  0  0  0  0  0  0  0  0  0
  -17.2550  -32.7820   56.6490 H   0  0  0  0  0  0  0  0  0  0  0  0
  -18.0390  -31.7710   55.3080 H   0  0  0  0  0  0  0  0  0  0  0  0
  -18.0590  -32.6180   55.9630 H   0  0  0  0  0  0  0  0  0  0  0  0
  1 38  1  0
  1  2  1  0
  2  6  1  0
  3  7  1  0
  3  2  2  0
  4  3  1  0
  5  4  1  0
  5  1  2  0
  7 15  1  0
  7  8  1  0
  8 16  1  0
  8  9  2  0
 10  9  1  0
 10 11  1  0
 11 17  1  0
 12 18  1  0
 12 11  2  0
 13 12  1  0
 14 13  2  0
 14 15  1  0
 15 10  2  0
 19 14  1  0
 20 13  1  0
 21 20  1  0
 21 22  1  0
 23 21  1  0
 24 25  1  0
 26 27  1  0
 26 24  1  0
 28 26  1  0
 29 26  1  0
 30 29  1  0
 31 24  1  0
 32 31  1  0
 33  5  1  0
 34 33  1  0
 34 37  1  0
 35 33  2  0
 36 34  1  0
 39 41  1  0
 40 39  1  0
 41 42  1  0
 42 48  1  0
 42 43  2  0
 43 49  1  0
 44 43  1  0
 44 50  1  0
 45 44  2  0
 46 41  2  0
 46 45  1  0
 47 46  1  0
 51 45  1  0
 52 39  1  0
 52 53  1  0
 54 52  1  0
 55 52  1  0
M  END
>  <minimizedAffinity>  (235) 
-11.0109854

$$$$

     RDKit          3D

 66 67  0  0  0  0  0  0  0  0999 V2000
  -24.8700  -27.1990   55.3440 C   0  0  0  0  0  0  0  0  0  0  0  0
  -25.2210  -25.8020   55.7620 C   0  0  0  0  0  0  0  0  0  0  0  0
  -24.1390  -24.8510   56.1800 C   0  0  0  0  0  0  0  0  0  0  0  0
  -22.7070  -25.2960   56.1800 C   0  0  0  0  0  0  0  0  0  0  0  0
  -21.6250  -24.3450   56.5980 N   0  0  0  0  0  0  0  0  0  0  0  0
  -20.1930  -24.7910   56.5980 C   0  0  0  0  0  0  0  0  0  0  0  0
  -19.8420  -26.1880   56.1800 N   0  0  0  0  0  0  0  0  0  0  0  0
  -20.9240  -27.1390   55.7620 C   0  0  0  0  0  0  0  0  0  0  0  0
  -20.5730  -28.5370   55.3440 N   0  0  0  0  0  0  0  0  0  0  0  0
  -22.3560  -26.6940   55.7620 C   0  0  0  0  0  0  0  0  0  0  0  0
  -23.4380  -27.6450   55.3440 C   0  0  0  0  0  0  0  0  0  0  0  0
  -26.2060  -25.4950   55.7620 H   0  0  0  0  0  0  0  0  0  0  0  0
  -24.3800  -23.8890   56.4680 H   0  0  0  0  0  0  0  0  0  0  0  0
  -19.4490  -24.1360   56.8860 H   0  0  0  0  0  0  0  0  0  0  0  0
  -21.2830  -29.1620   55.0690 H   0  0  0  0  0  0  0  0  0  0  0  0
  -23.1970  -28.6070   55.0560 H   0  0  0  0  0  0  0  0  0  0  0  0
  -19.1410  -28.9830   55.3440 C   0  0  0  0  0  0  0  0  0  0  0  0
  -18.7410  -30.2200   56.0910 C   0  0  0  0  0  0  0  0  0  0  0  0
  -17.3090  -30.6660   56.0910 C   0  0  0  0  0  0  0  0  0  0  0  0
  -16.2770  -29.8740   55.3440 C   0  0  0  0  0  0  0  0  0  0  0  0
  -16.6770  -28.6360   54.5970 C   0  0  0  0  0  0  0  0  0  0  0  0
  -18.1090  -28.1910   54.5970 C   0  0  0  0  0  0  0  0  0  0  0  0
  -19.4510  -30.7650   56.6040 H   0  0  0  0  0  0  0  0  0  0  0  0
  -17.0330  -31.5180   56.6040 H   0  0  0  0  0  0  0  0  0  0  0  0
  -15.9670  -28.0910   54.0830 H   0  0  0  0  0  0  0  0  0  0  0  0
  -18.3840  -27.3390   54.0830 H   0  0  0  0  0  0  0  0  0  0  0  0
  -14.8450  -30.3200   55.3440 O   0  0  0  0  0  0  0  0  0  0  0  0
  -14.4480  -31.5710   56.0700 C   0  0  0  0  0  0  0  0  0  0  0  0
  -14.7240  -32.5280   55.6780 H   0  0  0  0  0  0  0  0  0  0  0  0
  -14.1660  -32.4640   56.5890 H   0  0  0  0  0  0  0  0  0  0  0  0
  -13.6660  -31.4810   57.3470 C   0  0  0  0  0  0  0  0  0  0  0  0
  -14.3660  -31.1640   58.6350 C   0  0  0  0  0  0  0  0  0  0  0  0
  -13.5830  -31.0740   59.9120 C   0  0  0  0  0  0  0  0  0  0  0  0
  -12.1010  -31.3010   59.9000 C   0  0  0  0  0  0  0  0  0  0  0  0
  -11.4010  -31.6180   58.6120 C   0  0  0  0  0  0  0  0  0  0  0  0
  -12.1830  -31.7080   57.3350 C   0  0  0  0  0  0  0  0  0  0  0  0
  -15.3860  -31.0080   58.6430 H   0  0  0  0  0  0  0  0  0  0  0  0
  -14.0650  -30.8560   60.7980 H   0  0  0  0  0  0  0  0  0  0  0  0
  -11.5620  -31.2390   60.7780 H   0  0  0  0  0  0  0  0  0  0  0  0
  -10.3800  -31.7740   58.6040 H   0  0  0  0  0  0  0  0  0  0  0  0
  -11.7010  -31.9260   56.4490 H   0  0  0  0  0  0  0  0  0  0  0  0
  -27.1010  -30.0690   53.9830 C   0  0  0  0  0  3  0  0  0  0  0  0
  -28.1320  -29.1600   54.5820 C   0  0  0  0  0  0  0  0  0  0  0  0
  -27.4220  -27.9740   55.1650 O   0  0  0  0  0  0  0  0  0  0  0  0
  -25.9520  -28.1510   54.9260 C   0  0  0  0  0  0  0  0  0  0  0  0
  -25.7530  -29.4450   54.1950 C   0  0  0  0  0  0  0  0  0  0  0  0
  -29.1510  -29.3220   54.5920 H   0  0  0  0  0  0  0  0  0  0  0  0
  -24.8480  -29.8380   53.8920 H   0  0  0  0  0  0  0  0  0  0  0  0
  -27.3700  -31.3740   53.2920 C   0  0  0  0  0  3  0  0  0  0  0  0
  -28.2560  -31.9270   53.5200 H   0  0  0  0  0  0  0  0  0  0  0  0
  -28.0640  -30.9970   54.0130 H   0  0  0  0  0  0  0  0  0  0  0  0
  -26.3950  -31.9020   52.2810 N   0  0  0  0  0  2  0  0  0  0  0  0
  -26.3930  -31.5290   51.3310 H   0  0  0  0  0  0  0  0  0  0  0  0
  -25.4230  -32.9780   52.6680 C   0  0  0  0  0  2  0  0  0  0  0  0
  -25.6760  -33.6750   53.4380 H   0  0  0  0  0  0  0  0  0  0  0  0
  -26.3690  -32.9080   53.1630 H   0  0  0  0  0  0  0  0  0  0  0  0
  -24.0970  -33.0740   51.9730 C   0  0  0  0  0  3  0  0  0  0  0  0
  -24.0450  -33.4360   50.9680 H   0  0  0  0  0  0  0  0  0  0  0  0
  -24.9910  -33.3670   51.4630 H   0  0  0  0  0  0  0  0  0  0  0  0
  -22.8440  -32.6640   52.6890 S   0  0  1  0  0  0  0  0  0  0  0  0
  -22.3720  -34.0870   52.6780 O   0  0  0  0  0  0  0  0  0  0  0  0
  -23.3180  -31.2410   52.7000 O   0  0  0  0  0  0  0  0  0  0  0  0
  -21.5930  -32.2540   53.4050 C   0  0  0  0  0  0  0  0  0  0  0  0
  -21.4380  -31.2270   53.6680 H   0  0  0  0  0  0  0  0  0  0  0  0
  -20.8540  -32.9860   53.6540 H   0  0  0  0  0  0  0  0  0  0  0  0
  -20.6990  -31.9600   53.9170 H   0  0  0  0  0  0  0  0  0  0  0  0
  1  2  1  0
  2 12  1  0
  2  3  2  0
  3  4  1  0
  3 13  1  0
  4  5  1  0
  6  5  2  0
  6 14  1  0
  7  6  1  0
  8 10  1  0
  8  7  2  0
  9  8  1  0
 10  4  2  0
 11  1  2  0
 11 10  1  0
 15  9  1  0
 16 11  1  0
 17  9  1  0
 17 18  1  0
 18 19  2  0
 18 23  1  0
 19 24  1  0
 20 27  1  0
 20 19  1  0
 21 22  1  0
 21 20  2  0
 22 17  2  0
 25 21  1  0
 26 22  1  0
 27 28  1  0
 28 30  1  0
 28 31  1  0
 29 28  1  0
 31 32  1  0
 32 37  1  0
 32 33  2  0
 33 38  1  0
 34 33  1  0
 34 39  1  0
 35 34  2  0
 36 31  2  0
 36 35  1  0
 40 35  1  0
 41 36  1  0
 42 46  1  0
 42 43  2  0
 43 47  1  0
 43 44  1  0
 45 44  1  0
 45  1  1  0
 46 45  2  0
 48 46  1  0
 49 50  1  0
 49 51  1  0
 52 49  1  0
 53 52  1  0
 54 56  1  0
 54 55  1  0
 57 60  1  0
 58 57  1  0
 59 57  1  0
 60 62  2  0
 60 63  1  0
 61 60  2  0
 63 65  1  0
 63 64  1  0
 63 66  1  0
M  END
>  <minimizedAffinity>  (236) 
-11.5431194

$$$$

     RDKit          3D

 54 55  0  0  0  0  0  0  0  0999 V2000
  -18.4980  -29.4300   54.8410 C   0  0  0  0  0  0  0  0  0  0  0  0
  -19.2910  -29.6040   56.1030 C   0  0  0  0  0  0  0  0  0  0  0  0
  -20.4360  -28.6830   56.4020 C   0  0  0  0  0  0  0  0  0  0  0  0
  -20.7890  -27.5880   55.4390 C   0  0  0  0  0  0  0  0  0  0  0  0
  -19.9960  -27.4130   54.1780 C   0  0  0  0  0  0  0  0  0  0  0  0
  -18.8500  -28.3340   53.8790 C   0  0  0  0  0  0  0  0  0  0  0  0
  -19.0480  -30.3580   56.7650 H   0  0  0  0  0  0  0  0  0  0  0  0
  -20.9820  -28.8030   57.2690 H   0  0  0  0  0  0  0  0  0  0  0  0
  -20.2380  -26.6600   53.5160 H   0  0  0  0  0  0  0  0  0  0  0  0
  -18.3040  -28.2140   53.0110 H   0  0  0  0  0  0  0  0  0  0  0  0
  -21.9340  -26.6670   55.7380 C   0  0  0  0  0  0  0  0  0  0  0  0
  -23.3450  -27.1300   55.5220 C   0  0  0  0  0  0  0  0  0  0  0  0
  -24.4900  -26.2090   55.8210 C   0  0  0  0  0  0  0  0  0  0  0  0
  -24.2260  -24.8250   56.3360 C   0  0  0  0  0  0  0  0  0  0  0  0
  -22.8150  -24.3620   56.5520 C   0  0  0  0  0  0  0  0  0  0  0  0
  -21.6700  -25.2830   56.2530 C   0  0  0  0  0  0  0  0  0  0  0  0
  -23.5270  -28.0820   55.1680 H   0  0  0  0  0  0  0  0  0  0  0  0
  -25.0140  -24.1910   56.5420 H   0  0  0  0  0  0  0  0  0  0  0  0
  -22.6330  -23.4100   56.9070 H   0  0  0  0  0  0  0  0  0  0  0  0
  -25.9010  -26.6710   55.6050 C   0  0  0  0  0  0  0  0  0  0  0  0
  -27.1430  -25.9490   56.0390 N   0  0  0  0  0  0  0  0  0  0  0  0
  -28.3260  -26.7700   55.6190 N   0  0  0  0  0  0  0  0  0  0  0  0
  -27.8160  -27.9980   54.9260 C   0  0  0  0  0  0  0  0  0  0  0  0
  -26.3180  -27.9380   54.9170 O   0  0  0  0  0  0  0  0  0  0  0  0
  -28.6580  -29.0950   54.3430 C   0  0  0  0  0  0  0  0  0  0  0  0
  -28.1910  -29.9320   53.8670 H   0  0  0  0  0  0  0  0  0  0  0  0
  -29.7260  -29.0400   54.4040 H   0  0  0  0  0  0  0  0  0  0  0  0
  -29.2590  -29.8760   53.9280 H   0  0  0  0  0  0  0  0  0  0  0  0
  -20.2590  -24.8200   56.4700 C   0  0  0  0  0  0  0  0  0  0  0  0
  -20.0710  -23.8330   56.8370 H   0  0  0  0  0  0  0  0  0  0  0  0
  -19.4430  -25.4770   56.2560 H   0  0  0  0  0  0  0  0  0  0  0  0
  -19.2540  -24.4900   56.6240 H   0  0  0  0  0  0  0  0  0  0  0  0
  -16.8350  -31.2740   55.6060 N   0  0  0  0  0  1  0  0  0  0  0  0
  -17.3520  -30.3500   54.5420 C   0  0  0  0  0  2  0  0  0  0  0  0
  -16.7240  -30.3480   53.1800 O   0  0  0  0  0  1  0  0  0  0  0  0
  -17.2470  -31.2750   56.5000 H   0  0  0  0  0  0  0  0  0  0  0  0
  -15.6890  -32.1950   55.3070 C   0  0  0  0  0  3  0  0  0  0  0  0
  -15.7380  -32.8540   54.4650 H   0  0  0  0  0  0  0  0  0  0  0  0
  -16.5550  -32.1970   54.6790 H   0  0  0  0  0  0  0  0  0  0  0  0
  -12.0450  -32.1840   57.9470 C   0  0  0  0  0  0  0  0  0  0  0  0
  -12.0420  -31.4110   56.6620 C   0  0  0  0  0  0  0  0  0  0  0  0
  -13.2570  -31.4140   55.7820 C   0  0  0  0  0  0  0  0  0  0  0  0
  -14.4740  -32.1910   56.1870 C   0  0  0  0  0  0  0  0  0  0  0  0
  -14.4770  -32.9640   57.4720 C   0  0  0  0  0  0  0  0  0  0  0  0
  -13.2630  -32.9610   58.3520 C   0  0  0  0  0  0  0  0  0  0  0  0
  -11.2040  -30.8760   56.3830 H   0  0  0  0  0  0  0  0  0  0  0  0
  -13.2550  -30.8820   54.8970 H   0  0  0  0  0  0  0  0  0  0  0  0
  -15.3150  -33.4990   57.7510 H   0  0  0  0  0  0  0  0  0  0  0  0
  -13.2650  -33.4930   59.2370 H   0  0  0  0  0  0  0  0  0  0  0  0
  -10.8310  -32.1800   58.8270 O   0  0  0  0  0  0  0  0  0  0  0  0
   -9.9100  -30.9960   58.8300 C   0  0  0  0  0  0  0  0  0  0  0  0
  -10.1200  -30.1540   58.2050 H   0  0  0  0  0  0  0  0  0  0  0  0
   -9.0440  -30.9940   59.4580 H   0  0  0  0  0  0  0  0  0  0  0  0
   -9.2530  -30.1510   58.8320 H   0  0  0  0  0  0  0  0  0  0  0  0
  1  2  1  0
  2  3  2  0
  2  7  1  0
  3  8  1  0
  4 11  1  0
  4  3  1  0
  5  4  2  0
  6  5  1  0
  6  1  2  0
  9  5  1  0
 10  6  1  0
 11 16  1  0
 12 11  2  0
 12 13  1  0
 13 14  2  0
 14 18  1  0
 14 15  1  0
 15 19  1  0
 16 29  1  0
 16 15  2  0
 17 12  1  0
 20 13  1  0
 20 21  2  0
 22 21  1  0
 23 22  2  0
 24 23  1  0
 24 20  1  0
 25 27  1  0
 25 23  1  0
 26 25  1  0
 28 25  1  0
 29 32  1  0
 29 30  1  0
 31 29  1  0
 33 36  1  0
 34  1  1  0
 35 34  1  0
 37 43  1  0
 38 37  1  0
 39 37  1  0
 40 45  1  0
 40 50  1  0
 41 40  2  0
 42 43  2  0
 42 41  1  0
 43 44  1  0
 44 48  1  0
 44 45  2  0
 45 49  1  0
 46 41  1  0
 47 42  1  0
 50 51  1  0
 51 54  1  0
 51 53  1  0
 52 51  1  0
M  END
>  <minimizedAffinity>  (237) 
-10.4308119

$$$$

     RDKit          3D

 58 56  0  0  0  0  0  0  0  0999 V2000
  -20.1300  -28.1550   55.7480 N   0  0  0  0  0 15  0  0  0  0  0  0
  -20.2540  -26.6700   55.9200 C   0  0  0  0  0  2  0  0  0  0  0  0
  -18.8710  -26.0930   55.9960 N   0  0  0  0  0  2  0  0  0  0  0  0
  -17.8910  -27.2230   55.8700 C   0  0  0  0  0  0  0  0  0  0  0  0
  -16.3920  -27.2550   55.8760 C   0  0  0  0  0  0  0  0  0  0  0  0
  -15.6700  -28.5620   55.7280 N   0  0  0  0  0  0  0  0  0  0  0  0
  -16.4470  -29.8350   55.5750 C   0  0  0  0  0  3  0  0  0  0  0  0
  -17.9470  -29.8030   55.5690 C   0  0  0  0  0  0  0  0  0  0  0  0
  -18.6690  -28.4960   55.7170 C   0  0  0  0  0  3  0  0  0  0  0  0
  -18.4820  -30.6790   55.4640 H   0  0  0  0  0  0  0  0  0  0  0  0
  -21.5360  -25.8960   56.0030 C   0  0  0  0  0  0  0  0  0  0  0  0
  -22.9180  -26.4600   55.8420 N   0  0  0  0  0  0  0  0  0  0  0  0
  -23.8980  -25.3350   56.0000 O   0  0  0  0  0  0  0  0  0  0  0  0
  -23.1230  -24.0770   56.2580 N   0  0  0  0  0  0  0  0  0  0  0  0
  -21.6630  -24.4230   56.2600 C   0  0  0  0  0  0  0  0  0  0  0  0
  -20.5310  -23.4660   56.4790 N   0  0  0  0  0  0  0  0  0  0  0  0
  -19.6010  -23.7910   56.4620 H   0  0  0  0  0  0  0  0  0  0  0  0
  -20.7150  -22.5130   56.6410 H   0  0  0  0  0  0  0  0  0  0  0  0
  -21.2650  -29.1270   55.6280 C   0  0  0  0  0  3  0  0  0  0  0  0
  -21.7300  -29.5180   56.5090 H   0  0  0  0  0  0  0  0  0  0  0  0
  -20.9190  -28.8240   56.5940 H   0  0  0  0  0  0  0  0  0  0  0  0
  -21.7490  -29.5510   54.2740 C   0  0  0  0  0  0  0  0  0  0  0  0
  -21.2840  -29.1600   53.3930 H   0  0  0  0  0  0  0  0  0  0  0  0
  -22.5590  -30.2440   54.1880 H   0  0  0  0  0  0  0  0  0  0  0  0
  -22.0950  -29.8540   53.3070 H   0  0  0  0  0  0  0  0  0  0  0  0
  -15.6140  -25.9820   56.0290 C   0  0  0  0  0  0  0  0  0  0  0  0
  -14.8370  -24.7080   56.1820 C   0  0  0  0  0  0  0  0  0  0  0  0
  -14.0590  -23.4350   56.3350 C   0  0  0  0  0  0  0  0  0  0  0  0
  -13.6810  -23.8330   57.7310 C   0  0  0  0  0  0  0  0  0  0  0  0
  -14.0260  -24.7630   58.1340 H   0  0  0  0  0  0  0  0  0  0  0  0
  -13.0650  -23.1890   58.3230 H   0  0  0  0  0  0  0  0  0  0  0  0
  -13.4110  -24.1180   58.7260 H   0  0  0  0  0  0  0  0  0  0  0  0
  -14.4370  -23.0360   54.9390 C   0  0  0  0  0  0  0  0  0  0  0  0
  -14.0910  -22.1070   54.5360 H   0  0  0  0  0  0  0  0  0  0  0  0
  -15.0530  -23.6810   54.3470 H   0  0  0  0  0  0  0  0  0  0  0  0
  -14.7070  -22.7520   53.9440 H   0  0  0  0  0  0  0  0  0  0  0  0
  -13.2810  -22.1610   56.4880 O   0  0  0  0  0  0  0  0  0  0  0  0
  -12.8180  -21.9730   57.3190 H   0  0  0  0  0  0  0  0  0  0  0  0
  -15.7250  -31.1420   55.4270 O   0  0  0  0  0 15  0  0  0  0  0  0
  -15.5540  -32.0430   56.6140 C   0  0  0  0  0  3  0  0  0  0  0  0
  -16.3780  -32.1870   55.9470 H   0  0  0  0  0  0  0  0  0  0  0  0
  -14.3990  -31.8400   57.5490 C   0  0  0  0  0  0  0  0  0  0  0  0
  -13.0070  -32.1820   57.1070 C   0  0  0  0  0  0  0  0  0  0  0  0
  -11.8520  -31.9790   58.0420 C   0  0  0  0  0  0  0  0  0  0  0  0
  -12.0890  -31.4340   59.4200 C   0  0  0  0  0  0  0  0  0  0  0  0
  -13.4810  -31.0920   59.8620 C   0  0  0  0  0  0  0  0  0  0  0  0
  -14.6360  -31.2950   58.9270 C   0  0  0  0  0  0  0  0  0  0  0  0
  -12.8440  -32.5570   56.1590 H   0  0  0  0  0  0  0  0  0  0  0  0
  -10.8940  -32.2140   57.7380 H   0  0  0  0  0  0  0  0  0  0  0  0
  -11.2940  -31.2940   60.0630 H   0  0  0  0  0  0  0  0  0  0  0  0
  -13.6440  -30.7170   60.8090 H   0  0  0  0  0  0  0  0  0  0  0  0
  -15.5940  -31.0600   59.2310 H   0  0  0  0  0  0  0  0  0  0  0  0
  -16.5380  -33.1460   56.8660 C   0  0  0  0  0  0  0  0  0  0  0  0
  -16.6300  -33.5690   57.8450 H   0  0  0  0  0  0  0  0  0  0  0  0
  -17.2400  -33.9340   57.0450 H   0  0  0  0  0  0  0  0  0  0  0  0
  -17.3940  -33.6580   55.7450 N   0  0  0  0  0  0  0  0  0  0  0  0
  -18.0630  -34.4090   55.9170 H   0  0  0  0  0  0  0  0  0  0  0  0
  -17.3070  -33.2560   54.8110 H   0  0  0  0  0  0  0  0  0  0  0  0
  2  3  1  0
  2 11  1  0
  4  5  1  0
  4  3  1  0
  5 26  1  0
  6  5  2  0
  7  6  1  0
  8  7  2  0
  8  9  1  0
  9  4  2  0
 10  8  1  0
 11 15  1  0
 12 13  1  0
 12 11  2  0
 13 14  1  0
 14 15  2  0
 15 16  1  0
 16 18  1  0
 17 16  1  0
 19 20  1  0
 19 21  1  0
 22 19  1  0
 23 22  1  0
 24 22  1  0
 25 22  1  0
 26 27  3  0
 27 28  1  0
 28 37  1  0
 28 29  1  0
 29 30  1  0
 29 31  1  0
 29 32  1  0
 33 28  1  0
 34 33  1  0
 35 33  1  0
 36 33  1  0
 37 38  1  0
 40 53  1  0
 40 42  1  0
 41 40  1  0
 42 47  1  0
 43 42  2  0
 43 44  1  0
 44 45  2  0
 45 46  1  0
 45 50  1  0
 46 51  1  0
 47 52  1  0
 47 46  2  0
 48 43  1  0
 49 44  1  0
 53 55  1  0
 53 54  1  0
 56 57  1  0
 56 53  1  0
 58 56  1  0
M  END
>  <minimizedAffinity>  (238) 
-10.8825569

$$$$

     RDKit          3D

 51 55  0  0  0  0  0  0  0  0999 V2000
  -20.3850  -28.8900   54.3190 C   0  0  0  0  0  0  0  0  0  0  0  0
  -21.7620  -28.3010   54.2490 N   0  0  0  0  0  0  0  0  0  0  0  0
  -21.7400  -26.9840   54.9680 N   0  0  0  0  0  0  0  0  0  0  0  0
  -22.8070  -25.9610   55.2210 N   0  0  0  0  0  0  0  0  0  0  0  0
  -22.4830  -24.7130   55.9880 C   0  0  0  0  0  0  0  0  0  0  0  0
  -21.0920  -24.4890   56.5020 C   0  0  0  0  0  0  0  0  0  0  0  0
  -20.0250  -25.5120   56.2490 C   0  0  0  0  0  0  0  0  0  0  0  0
  -20.3490  -26.7600   55.4820 C   0  0  0  0  0  0  0  0  0  0  0  0
  -19.5100  -27.9380   55.0810 C   0  0  0  0  0  0  0  0  0  0  0  0
  -23.2170  -24.0090   56.1620 H   0  0  0  0  0  0  0  0  0  0  0  0
  -20.8690  -23.6300   57.0300 H   0  0  0  0  0  0  0  0  0  0  0  0
  -19.0680  -25.3580   56.6030 H   0  0  0  0  0  0  0  0  0  0  0  0
  -19.0980  -32.8230   52.5520 C   0  0  0  0  0  0  0  0  0  0  0  0
  -18.5970  -31.5370   51.9640 C   0  0  0  0  0  0  0  0  0  0  0  0
  -19.0260  -30.2260   52.5530 C   0  0  0  0  0  0  0  0  0  0  0  0
  -19.9560  -30.2010   53.7300 C   0  0  0  0  0  0  0  0  0  0  0  0
  -20.4560  -31.4870   54.3180 C   0  0  0  0  0  0  0  0  0  0  0  0
  -20.0270  -32.7980   53.7290 C   0  0  0  0  0  0  0  0  0  0  0  0
  -17.9580  -31.5540   51.1540 H   0  0  0  0  0  0  0  0  0  0  0  0
  -18.6820  -29.3410   52.1480 H   0  0  0  0  0  0  0  0  0  0  0  0
  -21.0950  -31.4690   55.1280 H   0  0  0  0  0  0  0  0  0  0  0  0
  -20.3710  -33.6830   54.1340 H   0  0  0  0  0  0  0  0  0  0  0  0
  -18.6690  -34.1340   51.9630 O   0  0  0  0  0  0  0  0  0  0  0  0
  -17.2960  -34.6700   52.2450 C   0  0  0  0  0  0  0  0  0  0  0  0
  -16.6230  -34.1170   52.8670 H   0  0  0  0  0  0  0  0  0  0  0  0
  -16.9900  -35.6050   51.8250 H   0  0  0  0  0  0  0  0  0  0  0  0
  -16.3170  -35.0520   52.4470 H   0  0  0  0  0  0  0  0  0  0  0  0
  -18.0550  -28.1290   55.3880 C   0  0  0  0  0  0  0  0  0  0  0  0
  -17.1180  -26.9590   55.3410 C   0  0  0  0  0  0  0  0  0  0  0  0
  -15.6630  -27.1510   55.6480 C   0  0  0  0  0  0  0  0  0  0  0  0
  -15.1440  -28.5130   56.0010 N   0  0  0  0  0  0  0  0  0  0  0  0
  -16.0800  -29.6840   56.0480 C   0  0  0  0  0  0  0  0  0  0  0  0
  -15.5630  -31.0460   56.4010 N   0  0  0  0  0  0  0  0  0  0  0  0
  -17.5370  -29.4910   55.7410 N   0  0  0  0  0  0  0  0  0  0  0  0
  -17.4760  -26.0220   55.0980 H   0  0  0  0  0  0  0  0  0  0  0  0
  -15.0190  -26.3450   55.6160 H   0  0  0  0  0  0  0  0  0  0  0  0
  -16.1770  -31.8140   56.4320 H   0  0  0  0  0  0  0  0  0  0  0  0
  -14.1060  -31.2380   56.7080 C   0  0  0  0  0  0  0  0  0  0  0  0
  -13.6610  -31.4590   58.1240 C   0  0  0  0  0  0  0  0  0  0  0  0
  -12.2060  -31.6510   58.4310 C   0  0  0  0  0  0  0  0  0  0  0  0
  -11.1960  -31.6230   57.3230 C   0  0  0  0  0  0  0  0  0  0  0  0
   -9.7400  -31.8150   57.6310 Cl  0  0  0  0  0  0  0  0  0  0  0  0
  -11.6400  -31.4020   55.9090 C   0  0  0  0  0  0  0  0  0  0  0  0
  -13.0960  -31.2100   55.6010 C   0  0  0  0  0  0  0  0  0  0  0  0
  -14.3570  -31.4780   58.8870 H   0  0  0  0  0  0  0  0  0  0  0  0
  -11.9000  -31.8020   59.4050 H   0  0  0  0  0  0  0  0  0  0  0  0
  -13.4020  -31.0580   54.6270 H   0  0  0  0  0  0  0  0  0  0  0  0
  -10.6300  -31.3740   54.7990 C   0  0  0  0  0  0  0  0  0  0  0  0
   -9.6200  -31.3470   53.6910 F   0  0  0  0  0  0  0  0  0  0  0  0
  -10.2730  -29.9620   55.1590 F   0  0  0  0  0  0  0  0  0  0  0  0
  -10.9870  -32.7870   54.4400 F   0  0  0  0  0  0  0  0  0  0  0  0
  1  9  1  0
  2  1  2  0
  2  3  1  0
  3  4  1  0
  3  8  1  0
  4  5  2  0
  5 10  1  0
  5  6  1  0
  6 11  1  0
  7  6  2  0
  7 12  1  0
  8  7  1  0
  9 28  1  0
  9  8  2  0
 13 18  1  0
 14 13  2  0
 14 15  1  0
 15 16  2  0
 16 17  1  0
 16  1  1  0
 17 21  1  0
 18 22  1  0
 18 17  2  0
 19 14  1  0
 20 15  1  0
 23 24  1  0
 23 13  1  0
 24 27  1  0
 24 25  1  0
 26 24  1  0
 28 34  2  0
 29 28  1  0
 29 30  2  0
 30 31  1  0
 31 32  2  0
 32 33  1  0
 33 37  1  0
 33 38  1  0
 34 32  1  0
 35 29  1  0
 36 30  1  0
 38 39  1  0
 39 40  2  0
 39 45  1  0
 40 46  1  0
 41 42  1  0
 41 40  1  0
 43 41  2  0
 44 43  1  0
 44 38  2  0
 47 44  1  0
 48 50  1  0
 48 43  1  0
 49 48  1  0
 51 48  1  0
M  END
>  <minimizedAffinity>  (239) 
-8.62777805

$$$$

     RDKit          3D

 41 40  0  0  0  0  0  0  0  0999 V2000
  -19.9960  -27.4450   55.9370 C   0  0  0  0  0  0  0  0  0  0  0  0
  -20.1130  -28.9390   55.9900 C   0  0  0  0  0  0  0  0  0  0  0  0
  -18.8800  -29.7910   55.9210 C   0  0  0  0  0  0  0  0  0  0  0  0
  -17.5310  -29.1480   55.7970 C   0  0  0  0  0  0  0  0  0  0  0  0
  -16.1480  -29.7250   55.7080 C   0  0  0  0  0  0  0  0  0  0  0  0
  -15.7990  -31.1830   55.7240 N   0  0  0  0  0  0  0  0  0  0  0  0
  -14.3640  -31.6120   55.6260 C   0  0  0  0  0  2  0  0  0  0  0  0
  -13.2810  -30.5820   55.5120 O   0  0  0  0  0  1  0  0  0  0  0  0
  -15.1780  -28.5870   55.5990 N   0  0  0  0  0  0  0  0  0  0  0  0
  -15.9600  -27.3070   55.6220 N   0  0  0  0  0  0  0  0  0  0  0  0
  -17.4140  -27.6540   55.7440 C   0  0  0  0  0  0  0  0  0  0  0  0
  -18.6460  -26.8020   55.8140 C   0  0  0  0  0  0  0  0  0  0  0  0
  -21.0420  -29.3820   56.0750 H   0  0  0  0  0  0  0  0  0  0  0  0
  -18.9610  -30.8190   55.9570 H   0  0  0  0  0  0  0  0  0  0  0  0
  -16.5110  -31.8590   55.7990 H   0  0  0  0  0  0  0  0  0  0  0  0
  -15.5840  -26.3980   55.5660 H   0  0  0  0  0  0  0  0  0  0  0  0
  -18.5660  -25.7740   55.7770 H   0  0  0  0  0  0  0  0  0  0  0  0
  -23.8040  -26.3390   55.7770 C   0  0  0  0  0  0  0  0  0  0  0  0
  -23.6940  -24.8900   56.1460 C   0  0  0  0  0  0  0  0  0  0  0  0
  -22.3520  -24.2920   56.4460 C   0  0  0  0  0  0  0  0  0  0  0  0
  -21.1190  -25.1440   56.3760 C   0  0  0  0  0  0  0  0  0  0  0  0
  -21.2290  -26.5930   56.0070 C   0  0  0  0  0  0  0  0  0  0  0  0
  -22.5710  -27.1910   55.7070 C   0  0  0  0  0  0  0  0  0  0  0  0
  -24.5430  -24.3040   56.1950 H   0  0  0  0  0  0  0  0  0  0  0  0
  -22.2760  -23.2940   56.7010 H   0  0  0  0  0  0  0  0  0  0  0  0
  -20.1950  -24.7320   56.5830 H   0  0  0  0  0  0  0  0  0  0  0  0
  -22.6470  -28.1890   55.4530 H   0  0  0  0  0  0  0  0  0  0  0  0
  -25.1470  -26.9370   55.4770 S   0  0  2  0  0  0  0  0  0  0  0  0
  -24.4830  -28.0480   54.7180 O   0  0  0  0  0  0  0  0  0  0  0  0
  -25.8110  -25.8270   56.2360 O   0  0  0  0  0  0  0  0  0  0  0  0
  -26.4890  -27.5350   55.1770 N   0  0  0  0  0  0  0  0  0  0  0  0
  -26.5550  -28.3920   54.6280 H   0  0  0  0  0  0  0  0  0  0  0  0
  -27.3370  -27.0850   55.5220 H   0  0  0  0  0  0  0  0  0  0  0  0
  -14.0150  -33.0710   55.6430 C   0  0  0  0  0 15  0  0  0  0  0  0
  -13.3880  -34.2640   54.9840 C   0  0  0  0  0  2  0  0  0  0  0  0
  -14.0370  -34.4040   56.3300 C   0  0  0  0  0  3  0  0  0  0  0  0
  -13.7660  -34.1120   55.6550 H   0  0  0  0  0  0  0  0  0  0  0  0
  -12.8630  -34.6970   54.1590 H   0  0  0  0  0  0  0  0  0  0  0  0
  -13.2670  -35.2950   55.2440 H   0  0  0  0  0  0  0  0  0  0  0  0
  -14.3130  -35.0110   57.1670 H   0  0  0  0  0  0  0  0  0  0  0  0
  -14.5400  -33.7390   57.0000 H   0  0  0  0  0  0  0  0  0  0  0  0
  1  2  1  0
  1 22  1  0
  2 13  1  0
  3 14  1  0
  3  2  2  0
  4  3  1  0
  5  6  1  0
  5  4  1  0
  6 15  1  0
  7  6  1  0
  8  7  1  0
  9 10  1  0
  9  5  2  0
 10 11  1  0
 11  4  2  0
 11 12  1  0
 12  1  2  0
 16 10  1  0
 17 12  1  0
 18 19  1  0
 19 24  1  0
 19 20  2  0
 20 25  1  0
 21 20  1  0
 21 26  1  0
 22 21  2  0
 23 18  2  0
 23 22  1  0
 27 23  1  0
 28 18  1  0
 28 30  2  0
 29 28  2  0
 31 28  1  0
 31 33  1  0
 32 31  1  0
 35 39  1  0
 36 41  1  0
 36 40  1  0
 37 36  1  0
 38 35  1  0
M  END
>  <minimizedAffinity>  (240) 
-9.51212788

$$$$

     RDKit          3D

 54 56  0  0  0  0  0  0  0  0999 V2000
  -15.9590  -29.2840   55.6040 C   0  0  0  0  0  0  0  0  0  0  0  0
  -17.2520  -29.7400   54.9970 C   0  0  0  0  0  1  0  0  0  0  0  0
  -17.3900  -31.1460   54.4930 C   0  0  0  0  0  3  0  0  0  0  0  0
  -16.2340  -32.0960   54.5980 N   0  0  0  0  0  0  0  0  0  0  0  0
  -14.9410  -31.6400   55.2050 C   0  0  0  0  0  0  0  0  0  0  0  0
  -14.8040  -30.2350   55.7080 N   0  0  0  0  0  4  0  0  0  0  0  0
  -18.2150  -30.4680   54.4190 H   0  0  0  0  0  0  0  0  0  0  0  0
  -13.9550  -29.9350   56.1070 H   0  0  0  0  0  0  0  0  0  0  0  0
  -18.6830  -31.6020   53.8860 C   0  0  0  0  0  0  0  0  0  0  0  0
  -19.5270  -32.6220   54.5930 C   0  0  0  0  0  0  0  0  0  0  0  0
  -20.8200  -33.0780   53.9860 C   0  0  0  0  0  0  0  0  0  0  0  0
  -21.2710  -32.5140   52.6710 C   0  0  0  0  0  0  0  0  0  0  0  0
  -22.5640  -32.9700   52.0630 F   0  0  0  0  0  0  0  0  0  0  0  0
  -20.4270  -31.4940   51.9630 C   0  0  0  0  0  0  0  0  0  0  0  0
  -19.1340  -31.0380   52.5700 C   0  0  0  0  0  0  0  0  0  0  0  0
  -19.2160  -33.0090   55.4990 H   0  0  0  0  0  0  0  0  0  0  0  0
  -21.4000  -33.7790   54.4720 H   0  0  0  0  0  0  0  0  0  0  0  0
  -20.7380  -31.1070   51.0580 H   0  0  0  0  0  0  0  0  0  0  0  0
  -18.5540  -30.3370   52.0840 H   0  0  0  0  0  0  0  0  0  0  0  0
  -13.7850  -32.5910   55.3090 C   0  0  0  0  0  0  0  0  0  0  0  0
  -13.9720  -34.0390   54.9680 C   0  0  0  0  0  0  0  0  0  0  0  0
  -12.8150  -34.9900   55.0720 C   0  0  0  0  0  0  0  0  0  0  0  0
  -11.4730  -34.4910   55.5170 C   0  0  0  0  0  0  0  0  0  0  0  0
  -11.2860  -33.0430   55.8590 N   0  0  0  0  0  0  0  0  0  0  0  0
  -12.4420  -32.0920   55.7550 C   0  0  0  0  0  0  0  0  0  0  0  0
  -14.8950  -34.3820   54.6610 H   0  0  0  0  0  0  0  0  0  0  0  0
  -12.9440  -35.9860   54.8370 H   0  0  0  0  0  0  0  0  0  0  0  0
  -12.3130  -31.0960   55.9900 H   0  0  0  0  0  0  0  0  0  0  0  0
  -10.3170  -35.4420   55.6220 C   0  0  0  0  0  0  0  0  0  0  0  0
   -9.1610  -36.3910   55.7260 F   0  0  0  0  0  0  0  0  0  0  0  0
  -11.0480  -36.4240   54.7550 F   0  0  0  0  0  0  0  0  0  0  0  0
   -9.5870  -34.4580   56.4880 F   0  0  0  0  0  0  0  0  0  0  0  0
  -15.8220  -27.8770   56.1080 C   0  0  0  0  0  0  0  0  0  0  0  0
  -16.6460  -27.1990   56.0330 H   0  0  0  0  0  0  0  0  0  0  0  0
  -14.8990  -27.5520   56.5410 H   0  0  0  0  0  0  0  0  0  0  0  0
  -15.7230  -26.8750   56.4670 H   0  0  0  0  0  0  0  0  0  0  0  0
  -18.4080  -28.7890   54.8930 C   0  0  0  0  0  2  0  0  0  0  0  0
  -18.4470  -27.7720   53.7910 O   0  0  0  0  0  1  0  0  0  0  0  0
  -19.5260  -28.8560   55.8900 N   0  0  0  0  0  0  0  0  0  0  0  0
  -19.5020  -29.5230   56.6140 H   0  0  0  0  0  0  0  0  0  0  0  0
  -20.6820  -27.9060   55.7860 C   0  0  0  0  0  0  0  0  0  0  0  0
  -21.9820  -28.3670   55.1990 C   0  0  0  0  0  0  0  0  0  0  0  0
  -23.1380  -27.4180   55.0940 C   0  0  0  0  0  0  0  0  0  0  0  0
  -22.9940  -26.0050   55.5780 C   0  0  0  0  0  0  0  0  0  0  0  0
  -23.9510  -24.8500   55.6050 N   0  0  0  0  0  0  0  0  0  0  0  0
  -23.2420  -23.6740   56.2100 N   0  0  0  0  0  0  0  0  0  0  0  0
  -21.8480  -24.1030   56.5560 C   0  0  0  0  0  0  0  0  0  0  0  0
  -21.6940  -25.5430   56.1660 C   0  0  0  0  0  0  0  0  0  0  0  0
  -20.5380  -26.4930   56.2700 C   0  0  0  0  0  0  0  0  0  0  0  0
  -22.0820  -29.3400   54.8650 H   0  0  0  0  0  0  0  0  0  0  0  0
  -24.0330  -27.7360   54.6890 H   0  0  0  0  0  0  0  0  0  0  0  0
  -24.8810  -24.8620   55.2820 H   0  0  0  0  0  0  0  0  0  0  0  0
  -21.1210  -23.5100   56.9880 H   0  0  0  0  0  0  0  0  0  0  0  0
  -19.6440  -26.1750   56.6750 H   0  0  0  0  0  0  0  0  0  0  0  0
  1  6  2  0
  1 33  1  0
  2  1  1  0
  3  4  1  0
  4  5  2  0
  5 20  1  0
  5  6  1  0
  6  8  1  0
  7  3  1  0
  9  3  1  0
  9 10  1  0
 10 16  1  0
 11 17  1  0
 11 10  2  0
 12 11  1  0
 13 12  1  0
 14 15  1  0
 14 12  2  0
 15  9  2  0
 18 14  1  0
 19 15  1  0
 20 25  1  0
 21 22  1  0
 21 20  2  0
 22 23  2  0
 23 29  1  0
 23 24  1  0
 25 24  2  0
 25 28  1  0
 26 21  1  0
 27 22  1  0
 29 30  1  0
 29 32  1  0
 31 29  1  0
 33 36  1  0
 33 35  1  0
 34 33  1  0
 37 39  1  0
 38 37  1  0
 39 40  1  0
 41 39  1  0
 41 49  1  0
 42 41  2  0
 43 42  1  0
 43 44  2  0
 44 45  1  0
 44 48  1  0
 45 46  1  0
 46 47  2  0
 47 53  1  0
 48 49  2  0
 48 47  1  0
 49 54  1  0
 50 42  1  0
 51 43  1  0
 52 45  1  0
M  END
>  <minimizedAffinity>  (241) 
-10.298954

$$$$

     RDKit          3D

 35 37  0  0  0  0  0  0  0  0999 V2000
  -23.0430  -31.8010   52.2980 O   0  0  0  0  0  0  0  0  0  0  0  0
  -23.5410  -30.8130   53.3110 C   0  0  0  0  0  0  0  0  0  0  0  0
  -24.7000  -31.0120   54.2420 N   0  0  0  0  0  0  0  0  0  0  0  0
  -24.8430  -29.7740   55.0760 C   0  0  0  0  0  0  0  0  0  0  0  0
  -25.8750  -29.5410   56.1390 O   0  0  0  0  0  0  0  0  0  0  0  0
  -23.7710  -28.8090   54.6620 C   0  0  0  0  0  0  0  0  0  0  0  0
  -22.9670  -29.4510   53.5710 C   0  0  0  0  0  0  0  0  0  0  0  0
  -25.2670  -31.8150   54.2950 H   0  0  0  0  0  0  0  0  0  0  0  0
  -23.5440  -27.4430   55.2370 C   0  0  0  0  0  0  0  0  0  0  0  0
  -24.7140  -26.5580   55.5510 C   0  0  0  0  0  0  0  0  0  0  0  0
  -24.4870  -25.1910   56.1260 C   0  0  0  0  0  0  0  0  0  0  0  0
  -23.0910  -24.7100   56.3880 C   0  0  0  0  0  0  0  0  0  0  0  0
  -21.9210  -25.5950   56.0740 C   0  0  0  0  0  0  0  0  0  0  0  0
  -22.1480  -26.9610   55.4990 C   0  0  0  0  0  0  0  0  0  0  0  0
  -25.6750  -26.8890   55.3710 H   0  0  0  0  0  0  0  0  0  0  0  0
  -25.2920  -24.5820   56.3420 H   0  0  0  0  0  0  0  0  0  0  0  0
  -22.9350  -23.7690   56.7840 H   0  0  0  0  0  0  0  0  0  0  0  0
  -21.3430  -27.5710   55.2830 H   0  0  0  0  0  0  0  0  0  0  0  0
  -20.5250  -25.1130   56.3360 N   0  0  0  0  0  0  0  0  0  0  0  0
  -20.2420  -23.6430   56.4190 O   0  0  0  0  0  0  0  0  0  0  0  0
  -19.4120  -26.1030   56.5150 O   0  0  0  0  0  0  0  0  0  0  0  0
  -21.7940  -28.8390   52.8640 N   0  0  0  0  0  0  0  0  0  0  0  0
  -21.9400  -28.1800   52.1470 H   0  0  0  0  0  0  0  0  0  0  0  0
  -20.3980  -29.2310   53.2480 C   0  0  0  0  0  0  0  0  0  0  0  0
  -19.9920  -30.6740   53.2330 C   0  0  0  0  0  0  0  0  0  0  0  0
  -18.5960  -31.0660   53.6170 C   0  0  0  0  0  0  0  0  0  0  0  0
  -18.1910  -32.5100   53.6020 Cl  0  0  0  0  0  0  0  0  0  0  0  0
  -17.6060  -30.0130   54.0170 C   0  0  0  0  0  0  0  0  0  0  0  0
  -18.0110  -28.5690   54.0320 C   0  0  0  0  0  0  0  0  0  0  0  0
  -17.0200  -27.5160   54.4330 Cl  0  0  0  0  0  0  0  0  0  0  0  0
  -19.4070  -28.1770   53.6480 C   0  0  0  0  0  0  0  0  0  0  0  0
  -20.6740  -31.3990   52.9580 H   0  0  0  0  0  0  0  0  0  0  0  0
  -19.6860  -27.1840   53.6590 H   0  0  0  0  0  0  0  0  0  0  0  0
  -16.2090  -30.4030   54.4020 O   0  0  0  0  0  0  0  0  0  0  0  0
  -15.9570  -31.3060   54.3920 H   0  0  0  0  0  0  0  0  0  0  0  0
  1  2  2  0
  2  7  1  0
  2  3  1  0
  3  8  1  0
  3  4  1  0
  4  5  2  0
  6  4  1  0
  6  9  1  0
  7  6  2  0
  9 14  2  0
  9 10  1  0
 10 11  2  0
 11 16  1  0
 11 12  1  0
 12 17  1  0
 13 19  1  0
 13 12  2  0
 14 13  1  0
 15 10  1  0
 18 14  1  0
 19 20  2  0
 19 21  2  0
 22 24  1  0
 22  7  1  0
 23 22  1  0
 24 31  1  0
 25 24  2  0
 25 26  1  0
 26 28  2  0
 27 26  1  0
 28 29  1  0
 28 34  1  0
 29 30  1  0
 31 33  1  0
 31 29  2  0
 32 25  1  0
 35 34  1  0
M  END
>  <minimizedAffinity>  (242) 
-7.92198133

$$$$

     RDKit          3D

 62 65  0  0  0  0  0  0  0  0999 V2000
  -19.1500  -29.2410   53.6450 N   0  0  0  0  0  0  0  0  0  0  0  0
  -20.3670  -28.4930   54.1000 C   0  0  0  0  0  0  0  0  0  0  0  0
  -21.6220  -28.5330   53.2800 C   0  0  0  0  0  0  0  0  0  0  0  0
  -22.8400  -27.7840   53.7350 C   0  0  0  0  0  0  0  0  0  0  0  0
  -22.8030  -26.9960   55.0100 C   0  0  0  0  0  0  0  0  0  0  0  0
  -21.5480  -26.9550   55.8310 C   0  0  0  0  0  0  0  0  0  0  0  0
  -20.3300  -27.7040   55.3760 C   0  0  0  0  0  0  0  0  0  0  0  0
  -21.6480  -29.0750   52.4030 H   0  0  0  0  0  0  0  0  0  0  0  0
  -23.7040  -27.8120   53.1710 H   0  0  0  0  0  0  0  0  0  0  0  0
  -21.5220  -26.4130   56.7080 H   0  0  0  0  0  0  0  0  0  0  0  0
  -19.4660  -27.6760   55.9400 H   0  0  0  0  0  0  0  0  0  0  0  0
  -24.0200  -26.2470   55.4660 N   0  0  0  0  0  0  0  0  0  0  0  0
  -25.3520  -26.9360   55.5060 C   0  0  0  0  0  0  0  0  0  0  0  0
  -25.4660  -28.3730   55.0920 O   0  0  0  0  0  0  0  0  0  0  0  0
  -26.5700  -26.1870   55.9610 N   0  0  0  0  0  0  0  0  0  0  0  0
  -23.9450  -25.3040   55.7370 H   0  0  0  0  0  0  0  0  0  0  0  0
  -26.4950  -25.2450   56.2330 H   0  0  0  0  0  0  0  0  0  0  0  0
  -27.9020  -26.8760   56.0020 C   0  0  0  0  0  0  0  0  0  0  0  0
  -28.7060  -27.0300   54.7450 C   0  0  0  0  0  0  0  0  0  0  0  0
  -30.0380  -27.7180   54.7860 C   0  0  0  0  0  0  0  0  0  0  0  0
  -30.5660  -28.2540   56.0840 C   0  0  0  0  0  0  0  0  0  0  0  0
  -29.7620  -28.1000   57.3410 C   0  0  0  0  0  0  0  0  0  0  0  0
  -28.4300  -27.4110   57.3000 C   0  0  0  0  0  0  0  0  0  0  0  0
  -28.3420  -26.6610   53.8520 H   0  0  0  0  0  0  0  0  0  0  0  0
  -30.5910  -27.8240   53.9210 H   0  0  0  0  0  0  0  0  0  0  0  0
  -30.1250  -28.4690   58.2340 H   0  0  0  0  0  0  0  0  0  0  0  0
  -27.8770  -27.3060   58.1650 H   0  0  0  0  0  0  0  0  0  0  0  0
  -31.8970  -28.9420   56.1250 O   0  0  0  0  0  0  0  0  0  0  0  0
  -31.9920  -30.4110   55.8350 C   0  0  0  0  0  0  0  0  0  0  0  0
  -32.0860  -31.8800   55.5440 F   0  0  0  0  0  0  0  0  0  0  0  0
  -31.7220  -30.7140   57.2790 F   0  0  0  0  0  0  0  0  0  0  0  0
  -32.2610  -30.1080   54.3900 F   0  0  0  0  0  0  0  0  0  0  0  0
  -17.8880  -29.1840   54.4550 C   0  0  0  0  0  0  0  0  0  0  0  0
  -17.1000  -27.9090   54.5270 C   0  0  0  0  0  0  0  0  0  0  0  0
  -15.8390  -27.8520   55.3360 C   0  0  0  0  0  0  0  0  0  0  0  0
  -15.3650  -29.0690   56.0740 N   0  0  0  0  0  0  0  0  0  0  0  0
  -16.1530  -30.3440   56.0020 C   0  0  0  0  0  0  0  0  0  0  0  0
  -15.6790  -31.5610   56.7400 N   0  0  0  0  0  0  0  0  0  0  0  0
  -17.4150  -30.4010   55.1920 N   0  0  0  0  0  0  0  0  0  0  0  0
  -17.4260  -27.0720   54.0190 H   0  0  0  0  0  0  0  0  0  0  0  0
  -15.2970  -26.9750   55.3850 H   0  0  0  0  0  0  0  0  0  0  0  0
  -16.1960  -32.3980   56.6930 H   0  0  0  0  0  0  0  0  0  0  0  0
  -14.4180  -31.5040   57.5490 C   0  0  0  0  0  0  0  0  0  0  0  0
  -14.4870  -31.2810   59.0310 C   0  0  0  0  0  0  0  0  0  0  0  0
  -13.2250  -31.2230   59.8400 C   0  0  0  0  0  0  0  0  0  0  0  0
  -11.8950  -31.3890   59.1680 C   0  0  0  0  0  0  0  0  0  0  0  0
  -11.8260  -31.6120   57.6860 C   0  0  0  0  0  0  0  0  0  0  0  0
  -13.0870  -31.6700   56.8770 C   0  0  0  0  0  0  0  0  0  0  0  0
  -15.4020  -31.1660   59.4930 H   0  0  0  0  0  0  0  0  0  0  0  0
  -13.2730  -31.0700   60.8600 H   0  0  0  0  0  0  0  0  0  0  0  0
  -11.0270  -31.3500   59.7250 H   0  0  0  0  0  0  0  0  0  0  0  0
  -13.0390  -31.8230   55.8570 H   0  0  0  0  0  0  0  0  0  0  0  0
  -10.4950  -31.7780   57.0140 S   0  0  2  0  0  0  0  0  0  0  0  0
  -10.2940  -33.0800   57.7320 O   0  0  0  0  0  0  0  0  0  0  0  0
  -10.6960  -30.4770   56.2950 O   0  0  0  0  0  0  0  0  0  0  0  0
   -9.1640  -31.9440   56.3420 N   0  0  0  0  0  0  0  0  0  0  0  0
   -8.5940  -32.7670   56.5360 H   0  0  0  0  0  0  0  0  0  0  0  0
   -8.8300  -31.2340   55.6900 H   0  0  0  0  0  0  0  0  0  0  0  0
  -19.1940  -30.0470   52.3810 C   0  0  0  0  0  0  0  0  0  0  0  0
  -20.0940  -30.0870   51.8040 H   0  0  0  0  0  0  0  0  0  0  0  0
  -18.3250  -30.5810   52.0560 H   0  0  0  0  0  0  0  0  0  0  0  0
  -19.2250  -30.6220   51.4790 H   0  0  0  0  0  0  0  0  0  0  0  0
  1  2  1  0
  1 33  1  0
  2  7  1  0
  3  4  1  0
  3  2  2  0
  4  5  2  0
  5 12  1  0
  5  6  1  0
  6 10  1  0
  7  6  2  0
  7 11  1  0
  8  3  1  0
  9  4  1  0
 12 13  1  0
 12 16  1  0
 13 15  1  0
 14 13  2  0
 15 18  1  0
 15 17  1  0
 18 23  1  0
 19 20  1  0
 19 18  2  0
 20 21  2  0
 21 28  1  0
 21 22  1  0
 22 26  1  0
 23 22  2  0
 23 27  1  0
 24 19  1  0
 25 20  1  0
 29 28  1  0
 29 31  1  0
 30 29  1  0
 32 29  1  0
 33 34  1  0
 33 39  2  0
 34 35  2  0
 35 41  1  0
 35 36  1  0
 37 36  2  0
 37 38  1  0
 38 43  1  0
 39 37  1  0
 40 34  1  0
 42 38  1  0
 43 44  1  0
 44 49  1  0
 44 45  2  0
 45 50  1  0
 46 51  1  0
 46 45  1  0
 47 46  2  0
 48 43  2  0
 48 47  1  0
 52 48  1  0
 53 47  1  0
 53 54  2  0
 55 53  2  0
 56 57  1  0
 56 53  1  0
 58 56  1  0
 59  1  1  0
 60 59  1  0
 61 59  1  0
 62 59  1  0
M  END
>  <minimizedAffinity>  (243) 
-8.5350256

$$$$

     RDKit          3D

 59 63  0  0  0  0  0  0  0  0999 V2000
  -22.8710  -28.7360   54.4560 C   0  0  0  0  0  0  0  0  0  0  0  0
  -23.4510  -27.4690   55.0110 C   0  0  0  0  0  0  0  0  0  0  0  0
  -24.9450  -27.5770   54.9500 N   0  0  0  0  0  0  0  0  0  0  0  0
  -25.2890  -28.9110   54.3570 C   0  0  0  0  0  0  0  0  0  0  0  0
  -24.0080  -29.6270   54.0520 N   0  0  0  0  0  0  0  0  0  0  0  0
  -16.3220  -30.7380   55.0490 C   0  0  0  0  0  0  0  0  0  0  0  0
  -17.0730  -31.1440   56.2820 C   0  0  0  0  0  0  0  0  0  0  0  0
  -18.5330  -30.8240   56.4110 C   0  0  0  0  0  0  0  0  0  0  0  0
  -19.2420  -30.0990   55.3050 C   0  0  0  0  0  0  0  0  0  0  0  0
  -20.7020  -29.7800   55.4330 C   0  0  0  0  0  0  0  0  0  0  0  0
  -21.4110  -29.0550   54.3280 C   0  0  0  0  0  0  0  0  0  0  0  0
  -20.6600  -28.6500   53.0950 C   0  0  0  0  0  0  0  0  0  0  0  0
  -19.2000  -28.9690   52.9660 C   0  0  0  0  0  0  0  0  0  0  0  0
  -18.4910  -29.6940   54.0720 C   0  0  0  0  0  0  0  0  0  0  0  0
  -17.0310  -30.0130   53.9440 C   0  0  0  0  0  0  0  0  0  0  0  0
  -16.5850  -31.6420   57.0430 H   0  0  0  0  0  0  0  0  0  0  0  0
  -19.0500  -31.1030   57.2590 H   0  0  0  0  0  0  0  0  0  0  0  0
  -21.2190  -30.0590   56.2820 H   0  0  0  0  0  0  0  0  0  0  0  0
  -21.1480  -28.1510   52.3340 H   0  0  0  0  0  0  0  0  0  0  0  0
  -18.6830  -28.6900   52.1170 H   0  0  0  0  0  0  0  0  0  0  0  0
  -16.5140  -29.7340   53.0950 H   0  0  0  0  0  0  0  0  0  0  0  0
  -14.8620  -31.0580   54.9210 O   0  0  0  0  0  0  0  0  0  0  0  0
  -13.9430  -30.8490   56.0880 C   0  0  0  0  0  0  0  0  0  0  0  0
  -14.3290  -30.4730   57.0130 H   0  0  0  0  0  0  0  0  0  0  0  0
  -12.9020  -31.0770   55.9970 H   0  0  0  0  0  0  0  0  0  0  0  0
  -13.2880  -30.7010   56.9210 H   0  0  0  0  0  0  0  0  0  0  0  0
  -22.6720  -26.2980   55.5360 C   0  0  0  0  0  0  0  0  0  0  0  0
  -23.3160  -24.9460   55.6200 C   0  0  0  0  0  0  0  0  0  0  0  0
  -22.5380  -23.7770   56.1440 C   0  0  0  0  0  0  0  0  0  0  0  0
  -21.1160  -23.9580   56.5840 N   0  0  0  0  0  0  0  0  0  0  0  0
  -20.4710  -25.3110   56.5000 C   0  0  0  0  0  0  0  0  0  0  0  0
  -21.2500  -26.4800   55.9760 C   0  0  0  0  0  0  0  0  0  0  0  0
  -24.2950  -24.8210   55.3170 H   0  0  0  0  0  0  0  0  0  0  0  0
  -22.9810  -22.8460   56.2020 H   0  0  0  0  0  0  0  0  0  0  0  0
  -19.4930  -25.4350   56.8030 H   0  0  0  0  0  0  0  0  0  0  0  0
  -20.8070  -27.4110   55.9180 H   0  0  0  0  0  0  0  0  0  0  0  0
  -26.6730  -29.4370   54.1120 C   0  0  0  0  0  0  0  0  0  0  0  0
  -27.3090  -29.2750   52.7630 C   0  0  0  0  0  0  0  0  0  0  0  0
  -28.6930  -29.8010   52.5190 C   0  0  0  0  0  0  0  0  0  0  0  0
  -29.4400  -30.4880   53.6220 C   0  0  0  0  0  0  0  0  0  0  0  0
  -28.8030  -30.6510   54.9710 C   0  0  0  0  0  0  0  0  0  0  0  0
  -27.4200  -30.1250   55.2150 C   0  0  0  0  0  0  0  0  0  0  0  0
  -26.7950  -28.8010   52.0040 H   0  0  0  0  0  0  0  0  0  0  0  0
  -29.1300  -29.6890   51.5900 H   0  0  0  0  0  0  0  0  0  0  0  0
  -29.3170  -31.1240   55.7300 H   0  0  0  0  0  0  0  0  0  0  0  0
  -26.7840  -30.2870   56.5640 C   0  0  0  0  0  0  0  0  0  0  0  0
  -27.3170  -30.7780   57.3510 H   0  0  0  0  0  0  0  0  0  0  0  0
  -25.7970  -29.9120   56.7390 H   0  0  0  0  0  0  0  0  0  0  0  0
  -26.3300  -30.4030   57.5260 H   0  0  0  0  0  0  0  0  0  0  0  0
  -30.8230  -31.0140   53.3770 S   0  0  0  0  0  0  0  0  0  0  0  0
  -31.6300  -31.5630   54.5170 O   0  0  0  0  0  0  0  0  0  0  0  0
  -31.4000  -30.9910   51.9930 C   0  0  0  0  0  0  0  0  0  0  0  0
  -30.8240  -30.6000   51.1800 H   0  0  0  0  0  0  0  0  0  0  0  0
  -32.3860  -31.3660   51.8180 H   0  0  0  0  0  0  0  0  0  0  0  0
  -31.8120  -30.9750   51.0050 H   0  0  0  0  0  0  0  0  0  0  0  0
  -23.8830  -30.9950   53.4480 C   0  0  0  0  0  0  0  0  0  0  0  0
  -22.9160  -31.4160   53.2710 H   0  0  0  0  0  0  0  0  0  0  0  0
  -24.7620  -31.5490   53.1950 H   0  0  0  0  0  0  0  0  0  0  0  0
  -23.7950  -31.9700   53.0170 H   0  0  0  0  0  0  0  0  0  0  0  0
  1  2  2  0
  2 27  1  0
  3  2  1  0
  4  3  2  0
  5  4  1  0
  5  1  1  0
  6  7  1  0
  7  8  2  0
  7 16  1  0
  8 17  1  0
  9 10  1  0
  9  8  1  0
 10 18  1  0
 11  1  1  0
 11 10  2  0
 12 11  1  0
 13 12  2  0
 13 14  1  0
 14  9  2  0
 15 14  1  0
 15  6  2  0
 19 12  1  0
 20 13  1  0
 21 15  1  0
 22  6  1  0
 22 23  1  0
 23 26  1  0
 23 24  1  0
 25 23  1  0
 27 28  2  0
 27 32  1  0
 28 29  1  0
 29 34  1  0
 29 30  2  0
 31 30  1  0
 31 35  1  0
 32 31  2  0
 33 28  1  0
 36 32  1  0
 37  4  1  0
 37 42  1  0
 38 37  2  0
 39 38  1  0
 39 40  2  0
 40 41  1  0
 41 42  2  0
 41 45  1  0
 42 46  1  0
 43 38  1  0
 44 39  1  0
 46 48  1  0
 46 47  1  0
 46 49  1  0
 50 40  1  0
 50 51  2  0
 52 50  1  0
 53 52  1  0
 54 52  1  0
 55 52  1  0
 56  5  1  0
 57 56  1  0
 58 56  1  0
 59 56  1  0
M  END
>  <minimizedAffinity>  (244) 
-7.94418526

$$$$

     RDKit          3D

 52 55  0  0  0  0  0  0  0  0999 V2000
  -24.4430  -26.6190   55.1010 N   0  0  0  0  0  0  0  0  0  0  0  0
  -23.2730  -25.8320   55.6120 C   0  0  0  0  0  0  0  0  0  0  0  0
  -23.4760  -24.4430   56.1400 N   0  0  0  0  0  0  0  0  0  0  0  0
  -22.3060  -23.6560   56.6510 C   0  0  0  0  0  0  0  0  0  0  0  0
  -20.9320  -24.2580   56.6340 C   0  0  0  0  0  0  0  0  0  0  0  0
  -20.7290  -25.6470   56.1060 C   0  0  0  0  0  0  0  0  0  0  0  0
  -19.3550  -26.2490   56.0890 N   0  0  0  0  0  0  0  0  0  0  0  0
  -21.8990  -26.4340   55.5950 N   0  0  0  0  0  0  0  0  0  0  0  0
  -25.3450  -26.2230   55.1130 H   0  0  0  0  0  0  0  0  0  0  0  0
  -22.4460  -22.7000   57.0140 H   0  0  0  0  0  0  0  0  0  0  0  0
  -20.1270  -23.7170   56.9850 H   0  0  0  0  0  0  0  0  0  0  0  0
  -18.5880  -25.7330   56.4240 H   0  0  0  0  0  0  0  0  0  0  0  0
  -19.1520  -27.6390   55.5610 C   0  0  0  0  0  0  0  0  0  0  0  0
  -19.9510  -28.7780   56.1210 C   0  0  0  0  0  0  0  0  0  0  0  0
  -19.7470  -30.1670   55.5930 C   0  0  0  0  0  0  0  0  0  0  0  0
  -18.7460  -30.4170   54.5050 C   0  0  0  0  0  0  0  0  0  0  0  0
  -18.3310  -31.6700   53.7900 C   0  0  0  0  0  0  0  0  0  0  0  0
  -17.2760  -31.3030   52.7890 N   0  0  0  0  0  0  0  0  0  0  0  0
  -17.0380  -29.8250   52.8840 N   0  0  0  0  0  0  0  0  0  0  0  0
  -17.9470  -29.2770   53.9450 C   0  0  0  0  0  0  0  0  0  0  0  0
  -18.1500  -27.8880   54.4730 C   0  0  0  0  0  0  0  0  0  0  0  0
  -20.6400  -28.6060   56.8700 H   0  0  0  0  0  0  0  0  0  0  0  0
  -20.2970  -30.9510   55.9780 H   0  0  0  0  0  0  0  0  0  0  0  0
  -16.3990  -29.3060   52.3450 H   0  0  0  0  0  0  0  0  0  0  0  0
  -17.6010  -27.1040   54.0870 H   0  0  0  0  0  0  0  0  0  0  0  0
  -18.8750  -33.0450   54.0350 C   0  0  0  0  0  0  0  0  0  0  0  0
  -18.5080  -33.8750   53.4670 H   0  0  0  0  0  0  0  0  0  0  0  0
  -19.6300  -33.1970   54.7770 H   0  0  0  0  0  0  0  0  0  0  0  0
  -19.2640  -34.0270   54.2090 H   0  0  0  0  0  0  0  0  0  0  0  0
  -22.8800  -29.6930   53.1380 C   0  0  0  0  0  0  0  0  0  0  0  0
  -23.0830  -28.3030   53.6660 C   0  0  0  0  0  0  0  0  0  0  0  0
  -24.2400  -28.0080   54.5730 C   0  0  0  0  0  0  0  0  0  0  0  0
  -25.1940  -29.1010   54.9530 C   0  0  0  0  0  0  0  0  0  0  0  0
  -24.9910  -30.4910   54.4250 C   0  0  0  0  0  0  0  0  0  0  0  0
  -23.8340  -30.7860   53.5170 C   0  0  0  0  0  0  0  0  0  0  0  0
  -22.4260  -27.5510   53.4050 H   0  0  0  0  0  0  0  0  0  0  0  0
  -25.9910  -28.8980   55.5770 H   0  0  0  0  0  0  0  0  0  0  0  0
  -21.7220  -29.9880   52.2310 O   0  0  0  0  0  0  0  0  0  0  0  0
  -20.6910  -28.9330   51.9630 C   0  0  0  0  0  0  0  0  0  0  0  0
  -19.8650  -29.1440   51.3160 H   0  0  0  0  0  0  0  0  0  0  0  0
  -20.7800  -27.9690   52.4190 H   0  0  0  0  0  0  0  0  0  0  0  0
  -19.9550  -28.1800   51.7720 H   0  0  0  0  0  0  0  0  0  0  0  0
  -25.9450  -31.5840   54.8040 O   0  0  0  0  0  0  0  0  0  0  0  0
  -26.7470  -31.4750   56.0670 C   0  0  0  0  0  0  0  0  0  0  0  0
  -26.6390  -30.6170   56.6980 H   0  0  0  0  0  0  0  0  0  0  0  0
  -27.4280  -32.2550   56.3370 H   0  0  0  0  0  0  0  0  0  0  0  0
  -27.3190  -31.3970   56.9680 H   0  0  0  0  0  0  0  0  0  0  0  0
  -23.6300  -32.1750   52.9890 O   0  0  0  0  0  0  0  0  0  0  0  0
  -22.6530  -33.0960   53.6580 C   0  0  0  0  0  0  0  0  0  0  0  0
  -22.5080  -34.0880   53.2810 H   0  0  0  0  0  0  0  0  0  0  0  0
  -22.1010  -32.7620   54.5120 H   0  0  0  0  0  0  0  0  0  0  0  0
  -21.9560  -33.7530   54.1350 H   0  0  0  0  0  0  0  0  0  0  0  0
  1  9  1  0
  1  2  1  0
  2  3  2  0
  3  4  1  0
  4 10  1  0
  5  4  2  0
  5 11  1  0
  6  5  1  0
  7  6  1  0
  7 12  1  0
  8  2  1  0
  8  6  2  0
 13  7  1  0
 13 14  1  0
 14 22  1  0
 15 23  1  0
 15 14  2  0
 16 15  1  0
 17 26  1  0
 17 16  1  0
 18 19  1  0
 18 17  2  0
 19 20  1  0
 20 21  1  0
 20 16  2  0
 21 13  2  0
 24 19  1  0
 25 21  1  0
 26 29  1  0
 26 28  1  0
 27 26  1  0
 30 35  2  0
 30 31  1  0
 31 32  2  0
 32 33  1  0
 32  1  1  0
 33 37  1  0
 34 43  1  0
 34 33  2  0
 35 34  1  0
 36 31  1  0
 38 30  1  0
 39 38  1  0
 39 41  1  0
 40 39  1  0
 42 39  1  0
 43 44  1  0
 44 46  1  0
 44 45  1  0
 44 47  1  0
 48 35  1  0
 48 49  1  0
 49 52  1  0
 49 51  1  0
 50 49  1  0
M  END
>  <minimizedAffinity>  (245) 
-7.59419394

$$$$

     RDKit          3D

 44 44  0  0  0  0  0  0  0  0999 V2000
  -20.0270  -27.2920   55.6290 C   0  0  0  0  0  0  0  0  0  0  0  0
  -20.8470  -28.4610   55.1700 C   0  0  0  0  0  0  0  0  0  0  0  0
  -22.3440  -28.3680   55.1550 C   0  0  0  0  0  0  0  0  0  0  0  0
  -23.0210  -27.1050   55.5980 C   0  0  0  0  0  0  0  0  0  0  0  0
  -24.4690  -26.7210   55.6920 C   0  0  0  0  0  0  0  0  0  0  0  0
  -25.6360  -27.5910   55.3320 N   0  0  0  0  0  0  0  0  0  0  0  0
  -27.0350  -27.0690   55.4790 C   0  0  0  0  0  0  0  0  0  0  0  0
  -27.2650  -25.6760   55.9850 O   0  0  0  0  0  0  0  0  0  0  0  0
  -24.5430  -25.3150   56.2090 N   0  0  0  0  0  0  0  0  0  0  0  0
  -23.1420  -24.8300   56.4340 N   0  0  0  0  0  0  0  0  0  0  0  0
  -22.2010  -25.9350   56.0570 C   0  0  0  0  0  0  0  0  0  0  0  0
  -20.7040  -26.0290   56.0720 C   0  0  0  0  0  0  0  0  0  0  0  0
  -20.3810  -29.3300   54.8650 H   0  0  0  0  0  0  0  0  0  0  0  0
  -22.9080  -29.1720   54.8390 H   0  0  0  0  0  0  0  0  0  0  0  0
  -25.4840  -28.5060   54.9990 H   0  0  0  0  0  0  0  0  0  0  0  0
  -22.8850  -23.9410   56.7710 H   0  0  0  0  0  0  0  0  0  0  0  0
  -20.1400  -25.2240   56.3880 H   0  0  0  0  0  0  0  0  0  0  0  0
  -16.3610  -28.7950   55.4020 C   0  0  0  0  0  0  0  0  0  0  0  0
  -15.5360  -27.5720   55.6740 C   0  0  0  0  0  0  0  0  0  0  0  0
  -16.2080  -26.2560   55.9310 C   0  0  0  0  0  0  0  0  0  0  0  0
  -17.7050  -26.1620   55.9160 C   0  0  0  0  0  0  0  0  0  0  0  0
  -18.5300  -27.3850   55.6440 C   0  0  0  0  0  0  0  0  0  0  0  0
  -17.8580  -28.7010   55.3870 C   0  0  0  0  0  0  0  0  0  0  0  0
  -14.5060  -27.6360   55.6850 H   0  0  0  0  0  0  0  0  0  0  0  0
  -15.6400  -25.4140   56.1190 H   0  0  0  0  0  0  0  0  0  0  0  0
  -18.1680  -25.2570   56.0930 H   0  0  0  0  0  0  0  0  0  0  0  0
  -18.4260  -29.5430   55.1990 H   0  0  0  0  0  0  0  0  0  0  0  0
  -15.6890  -30.1110   55.1450 N   0  0  0  0  0  0  0  0  0  0  0  0
  -15.7360  -30.5210   54.2510 H   0  0  0  0  0  0  0  0  0  0  0  0
  -14.9460  -30.8020   56.2490 S   0  0  2  0  0  0  0  0  0  0  0  0
  -13.6460  -30.3230   55.6750 O   0  0  0  0  0  0  0  0  0  0  0  0
  -16.2460  -31.2810   56.8240 O   0  0  0  0  0  0  0  0  0  0  0  0
  -14.2030  -31.4930   57.3540 C   0  0  0  0  0  0  0  0  0  0  0  0
  -13.1350  -31.4440   57.3930 H   0  0  0  0  0  0  0  0  0  0  0  0
  -14.7410  -32.0360   58.1030 H   0  0  0  0  0  0  0  0  0  0  0  0
  -13.6730  -31.9860   58.1420 H   0  0  0  0  0  0  0  0  0  0  0  0
  -28.2020  -27.9390   55.1190 C   0  0  0  0  0  1  0  0  0  0  0  0
  -29.1990  -28.4230   54.1080 C   0  0  0  0  0  3  0  0  0  0  0  0
  -29.2280  -28.9630   55.5070 C   0  0  0  0  0  2  0  0  0  0  0  0
  -29.0350  -28.5600   54.8620 H   0  0  0  0  0  0  0  0  0  0  0  0
  -29.5970  -28.3990   53.1160 H   0  0  0  0  0  0  0  0  0  0  0  0
  -30.0090  -29.1220   54.1180 H   0  0  0  0  0  0  0  0  0  0  0  0
  -29.6620  -29.6070   56.2430 H   0  0  0  0  0  0  0  0  0  0  0  0
  -28.6530  -28.7960   56.3940 H   0  0  0  0  0  0  0  0  0  0  0  0
  1 22  1  0
  1 12  1  0
  2  1  2  0
  3  2  1  0
  3  4  2  0
  4  5  1  0
  4 11  1  0
  5  9  2  0
  6  7  1  0
  6  5  1  0
  7  8  2  0
  9 10  1  0
 10 16  1  0
 11 12  2  0
 11 10  1  0
 12 17  1  0
 13  2  1  0
 14  3  1  0
 15  6  1  0
 18 19  1  0
 19 24  1  0
 19 20  2  0
 20 25  1  0
 21 20  1  0
 21 26  1  0
 22 21  2  0
 23 18  2  0
 23 22  1  0
 27 23  1  0
 28 18  1  0
 28 30  1  0
 29 28  1  0
 30 32  2  0
 30 33  1  0
 31 30  2  0
 33 34  1  0
 33 35  1  0
 33 36  1  0
 37  7  1  0
 38 42  1  0
 38 40  1  0
 39 43  1  0
 39 44  1  0
 41 38  1  0
M  END
>  <minimizedAffinity>  (246) 
-9.38059425

$$$$

     RDKit          3D

 70 71  0  0  1  0  0  0  0  0999 V2000
  -17.5960  -32.2500   55.4630 C   0  0  0  0  0  0  0  0  0  0  0  0
  -16.2280  -32.3590   56.0690 C   0  0  0  0  0  0  0  0  0  0  0  0
  -15.3650  -31.1390   56.1950 C   0  0  0  0  0  0  0  0  0  0  0  0
  -15.8690  -29.8100   55.7150 C   0  0  0  0  0  0  0  0  0  0  0  0
  -17.2380  -29.7010   55.1100 C   0  0  0  0  0  0  0  0  0  0  0  0
  -18.1010  -30.9220   54.9840 C   0  0  0  0  0  0  0  0  0  0  0  0
  -15.8810  -33.2730   56.3990 H   0  0  0  0  0  0  0  0  0  0  0  0
  -15.2750  -28.9710   55.8010 H   0  0  0  0  0  0  0  0  0  0  0  0
  -17.5840  -28.7880   54.7800 H   0  0  0  0  0  0  0  0  0  0  0  0
  -13.9970  -31.2470   56.8000 N   0  0  0  0  0  2  0  0  0  0  0  0
  -13.8440  -31.4300   58.2810 C   0  0  0  0  0  3  0  0  0  0  0  0
  -12.4760  -31.5380   58.8860 C   0  0  0  0  0  2  0  0  0  0  0  0
  -11.2600  -31.4640   58.0100 N   0  0  0  0  0  2  0  0  0  0  0  0
  -11.4130  -31.2820   56.5290 C   0  0  0  0  0  3  0  0  0  0  0  0
  -12.7810  -31.1730   55.9240 C   0  0  0  0  0  2  0  0  0  0  0  0
  -14.7110  -31.4820   58.9050 H   0  0  0  0  0  0  0  0  0  0  0  0
  -13.7350  -31.5600   59.3370 H   0  0  0  0  0  0  0  0  0  0  0  0
  -12.3670  -31.6680   59.9430 H   0  0  0  0  0  0  0  0  0  0  0  0
  -11.5000  -31.6150   59.3180 H   0  0  0  0  0  0  0  0  0  0  0  0
  -10.5460  -31.2290   55.9050 H   0  0  0  0  0  0  0  0  0  0  0  0
  -11.5220  -31.1520   55.4730 H   0  0  0  0  0  0  0  0  0  0  0  0
  -12.8900  -31.0430   54.8680 H   0  0  0  0  0  0  0  0  0  0  0  0
  -13.7560  -31.0960   55.4920 H   0  0  0  0  0  0  0  0  0  0  0  0
   -9.8920  -31.5730   58.6160 C   0  0  0  0  0  0  0  0  0  0  0  0
   -8.9160  -31.6500   59.0480 H   0  0  0  0  0  0  0  0  0  0  0  0
   -9.1620  -32.8820   58.5880 C   0  0  0  0  0  0  0  0  0  0  0  0
   -9.6160  -33.7390   58.1370 H   0  0  0  0  0  0  0  0  0  0  0  0
   -8.1850  -32.9600   59.0200 H   0  0  0  0  0  0  0  0  0  0  0  0
   -8.6400  -33.8170   58.5680 H   0  0  0  0  0  0  0  0  0  0  0  0
   -9.2550  -30.3710   59.2490 C   0  0  0  0  0  0  0  0  0  0  0  0
   -8.2790  -30.4490   59.6810 H   0  0  0  0  0  0  0  0  0  0  0  0
   -9.7760  -29.4370   59.2690 H   0  0  0  0  0  0  0  0  0  0  0  0
   -8.8000  -29.5150   59.7010 H   0  0  0  0  0  0  0  0  0  0  0  0
  -19.4690  -30.8130   54.3790 N   0  0  0  0  0  0  0  0  0  0  0  0
  -20.3100  -29.5990   54.6390 C   0  0  0  0  0  0  0  0  0  0  0  0
  -21.6780  -29.4900   54.0340 N   0  0  0  0  0  0  0  0  0  0  0  0
  -22.5200  -28.2760   54.2940 C   0  0  0  0  0  3  0  0  0  0  0  0
  -21.9930  -27.1700   55.1600 C   0  0  0  0  0  0  0  0  0  0  0  0
  -22.5880  -25.8620   55.5920 C   0  0  0  0  0  0  0  0  0  0  0  0
  -21.5870  -25.1640   56.4630 C   0  0  0  0  0  0  0  0  0  0  0  0
  -20.3740  -26.0380   56.5710 N   0  0  0  0  0  0  0  0  0  0  0  0
  -20.6240  -27.2790   55.7650 C   0  0  0  0  0  0  0  0  0  0  0  0
  -19.7830  -28.4930   55.5050 N   0  0  0  0  0  2  0  0  0  0  0  0
  -19.8150  -31.5380   53.8110 H   0  0  0  0  0  0  0  0  0  0  0  0
  -23.5220  -25.5070   55.3330 H   0  0  0  0  0  0  0  0  0  0  0  0
  -21.7120  -24.2420   56.9110 H   0  0  0  0  0  0  0  0  0  0  0  0
  -19.5570  -25.8340   57.0810 H   0  0  0  0  0  0  0  0  0  0  0  0
  -23.8880  -28.1670   53.6890 N   0  0  0  0  0  0  0  0  0  0  0  0
  -24.0500  -27.5390   52.9490 H   0  0  0  0  0  0  0  0  0  0  0  0
  -25.0080  -29.0170   54.2110 C   0  0  0  0  0  0  0  0  0  0  0  0
  -25.0390  -30.4860   53.9100 C   0  0  0  0  0  0  0  0  0  0  0  0
  -26.1600  -31.3350   54.4330 C   0  0  0  0  0  0  0  0  0  0  0  0
  -27.2500  -30.7150   55.2550 C   0  0  0  0  0  0  0  0  0  0  0  0
  -27.2190  -29.2460   55.5560 C   0  0  0  0  0  0  0  0  0  0  0  0
  -28.3090  -28.6260   56.3790 N   0  0  0  0  0  0  0  0  0  0  0  0
  -28.2790  -27.1570   56.6800 C   0  0  0  0  0  0  0  0  0  0  0  0
  -27.1580  -26.3080   56.1580 C   0  0  0  0  0  0  0  0  0  0  0  0
  -26.0680  -26.9280   55.3350 C   0  0  0  0  0  0  0  0  0  0  0  0
  -26.0980  -28.3970   55.0340 C   0  0  0  0  0  0  0  0  0  0  0  0
  -24.2890  -30.9130   53.3440 H   0  0  0  0  0  0  0  0  0  0  0  0
  -26.1810  -32.3460   54.2260 H   0  0  0  0  0  0  0  0  0  0  0  0
  -28.0210  -31.3000   55.6150 H   0  0  0  0  0  0  0  0  0  0  0  0
  -29.0290  -26.7300   57.2460 H   0  0  0  0  0  0  0  0  0  0  0  0
  -27.1370  -25.2970   56.3650 H   0  0  0  0  0  0  0  0  0  0  0  0
  -25.2970  -26.3430   54.9750 H   0  0  0  0  0  0  0  0  0  0  0  0
  -18.4600  -33.4700   55.3380 O   0  0  0  0  0  0  0  0  0  0  0  0
  -18.2010  -34.4630   54.2430 C   0  0  0  0  0  0  0  0  0  0  0  0
  -17.4000  -34.3010   53.5520 H   0  0  0  0  0  0  0  0  0  0  0  0
  -18.8170  -35.3330   54.1540 H   0  0  0  0  0  0  0  0  0  0  0  0
  -18.0160  -35.1710   53.4630 H   0  0  0  0  0  0  0  0  0  0  0  0
  1  2  1  0
  2  3  2  0
  2  7  1  0
  3 10  1  0
  4  8  1  0
  4  3  1  0
  5  4  2  0
  6  5  1  0
  6  1  2  0
  9  5  1  0
 10 11  1  0
 11 16  1  0
 11 17  1  0
 12 19  1  0
 12 18  1  0
 13 24  1  0
 14 13  1  0
 20 14  1  0
 21 14  1  0
 22 15  1  0
 23 15  1  0
 24 25  1  0
 24 30  1  0
 26 24  1  0
 26 28  1  0
 27 26  1  0
 29 26  1  0
 30 32  1  0
 30 31  1  0
 30 33  1  0
 34 35  1  0
 34  6  1  0
 35 43  1  0
 36 37  1  0
 36 35  2  0
 37 48  1  0
 37 38  1  0
 38 39  1  0
 38 42  2  0
 39 40  2  0
 40 41  1  0
 40 46  1  0
 41 47  1  0
 42 41  1  0
 43 42  1  0
 44 34  1  0
 45 39  1  0
 48 50  1  0
 49 48  1  0
 50 59  1  0
 51 50  2  0
 51 52  1  0
 52 53  2  0
 53 54  1  0
 53 62  1  0
 54 55  1  0
 55 56  2  0
 56 63  1  0
 57 64  1  0
 57 56  1  0
 58 57  2  0
 59 58  1  0
 59 54  2  0
 60 51  1  0
 61 52  1  0
 65 58  1  0
 66  1  1  0
 67 66  1  0
 68 67  1  0
 69 67  1  0
 70 67  1  0
M  END
>  <minimizedAffinity>  (247) 
-9.40870762

$$$$

     RDKit          3D

 37 40  0  0  1  0  0  0  0  0999 V2000
  -19.7060  -28.0120   54.4960 C   0  0  0  0  0  0  0  0  0  0  0  0
  -20.1550  -26.7660   55.2010 C   0  0  0  0  0  3  0  0  0  0  0  0
  -19.2650  -25.6710   55.7090 C   0  0  0  0  0  0  0  0  0  0  0  0
  -17.7700  -25.6290   55.6020 O   0  0  0  0  0  0  0  0  0  0  0  0
  -20.1340  -24.6250   56.3440 N   0  0  0  0  0  0  0  0  0  0  0  0
  -21.5600  -25.0740   56.2280 C   0  0  0  0  0  0  0  0  0  0  0  0
  -22.8480  -24.4490   56.6740 C   0  0  0  0  0  0  0  0  0  0  0  0
  -24.1500  -25.1470   56.4140 C   0  0  0  0  0  0  0  0  0  0  0  0
  -24.1630  -26.4700   55.7080 C   0  0  0  0  0  0  0  0  0  0  0  0
  -25.2840  -27.3870   55.3150 N   0  0  0  0  0  0  0  0  0  0  0  0
  -24.6880  -28.5790   54.6250 C   0  0  0  0  0  0  0  0  0  0  0  0
  -23.2000  -28.3980   54.5930 S   0  0  0  0  0  0  0  0  0  0  0  0
  -22.8760  -27.0950   55.2610 C   0  0  0  0  0  0  0  0  0  0  0  0
  -21.5730  -26.3970   55.5220 C   0  0  0  0  0  0  0  0  0  0  0  0
  -20.4010  -28.7080   54.1840 H   0  0  0  0  0  0  0  0  0  0  0  0
  -19.8220  -23.7910   56.7630 H   0  0  0  0  0  0  0  0  0  0  0  0
  -22.8390  -23.5390   57.1600 H   0  0  0  0  0  0  0  0  0  0  0  0
  -25.0370  -24.7160   56.7210 H   0  0  0  0  0  0  0  0  0  0  0  0
  -25.2110  -29.3810   54.2420 H   0  0  0  0  0  0  0  0  0  0  0  0
  -18.2460  -28.2460   54.2440 N   0  0  0  0  0  4  0  0  0  0  0  0
  -17.7800  -27.7360   53.5430 H   0  0  0  0  0  0  0  0  0  0  0  0
  -15.9970  -31.2780   56.6940 C   0  0  0  0  0  0  0  0  0  0  0  0
  -15.2900  -30.0620   56.1720 C   0  0  0  0  0  0  0  0  0  0  0  0
  -16.0400  -29.0520   55.3550 C   0  0  0  0  0  0  0  0  0  0  0  0
  -17.4960  -29.2560   55.0610 C   0  0  0  0  0  0  0  0  0  0  0  0
  -18.2030  -30.4720   55.5830 C   0  0  0  0  0  0  0  0  0  0  0  0
  -17.4540  -31.4820   56.4000 C   0  0  0  0  0  0  0  0  0  0  0  0
  -14.2880  -29.9210   56.3740 H   0  0  0  0  0  0  0  0  0  0  0  0
  -15.5530  -28.2150   54.9960 H   0  0  0  0  0  0  0  0  0  0  0  0
  -19.2060  -30.6130   55.3810 H   0  0  0  0  0  0  0  0  0  0  0  0
  -17.9410  -32.3190   56.7600 H   0  0  0  0  0  0  0  0  0  0  0  0
  -15.2480  -32.2880   57.5110 S   0  0  1  0  0  0  0  0  0  0  0  0
  -14.0010  -31.4640   57.3860 O   0  0  0  0  0  0  0  0  0  0  0  0
  -16.4950  -33.1120   57.6360 O   0  0  0  0  0  0  0  0  0  0  0  0
  -14.4990  -33.2990   58.3280 N   0  0  0  0  0  0  0  0  0  0  0  0
  -13.5090  -33.1570   58.5320 H   0  0  0  0  0  0  0  0  0  0  0  0
  -14.9780  -34.1280   58.6790 H   0  0  0  0  0  0  0  0  0  0  0  0
  2  1  1  0
  2 14  1  0
  2  3  1  0
  3  5  1  0
  4  3  2  0
  5 16  1  0
  6  5  1  0
  6  7  1  0
  7 17  1  0
  8  7  2  0
  8 18  1  0
  9  8  1  0
 10  9  1  0
 11 10  2  0
 12 11  1  0
 12 13  1  0
 13 14  1  0
 13  9  2  0
 14  6  2  0
 15  1  1  0
 19 11  1  0
 20  1  2  0
 20 25  1  0
 21 20  1  0
 22 32  1  0
 23 28  1  0
 23 22  2  0
 24 23  1  0
 25 24  2  0
 25 26  1  0
 26 27  2  0
 27 22  1  0
 27 31  1  0
 29 24  1  0
 30 26  1  0
 32 34  2  0
 32 35  1  0
 33 32  2  0
 35 36  1  0
 35 37  1  0
M  END
>  <minimizedAffinity>  (248) 
-8.67480946

$$$$

     RDKit          3D

 47 48  0  0  0  0  0  0  0  0999 V2000
  -20.4750  -26.5800   55.8760 C   0  0  0  0  0  0  0  0  0  0  0  0
  -20.2800  -28.0680   55.8460 C   0  0  0  0  0  0  0  0  0  0  0  0
  -18.8160  -28.3400   55.6650 C   0  0  0  0  0  3  0  0  0  0  0  0
  -18.1060  -27.0210   55.5830 C   0  0  0  0  0  0  0  0  0  0  0  0
  -19.1310  -25.9330   55.7130 S   0  0  0  0  0  0  0  0  0  0  0  0
  -21.0230  -28.7780   55.9340 H   0  0  0  0  0  0  0  0  0  0  0  0
  -25.0500  -28.1430   55.2920 C   0  0  0  0  0  0  0  0  0  0  0  0
  -26.0690  -27.0760   55.5640 C   0  0  0  0  0  0  0  0  0  0  0  0
  -25.6250  -25.7010   55.9690 C   0  0  0  0  0  0  0  0  0  0  0  0
  -24.1630  -25.3930   56.1010 C   0  0  0  0  0  0  0  0  0  0  0  0
  -23.4320  -24.1400   56.4790 N   0  0  0  0  0  0  0  0  0  0  0  0
  -21.9610  -24.4320   56.4410 C   0  0  0  0  0  0  0  0  0  0  0  0
  -21.7830  -25.8660   56.0390 N   0  0  0  0  0  0  0  0  0  0  0  0
  -23.1450  -26.4600   55.8280 C   0  0  0  0  0  0  0  0  0  0  0  0
  -23.5880  -27.8350   55.4240 C   0  0  0  0  0  0  0  0  0  0  0  0
  -27.0750  -27.2880   55.4740 H   0  0  0  0  0  0  0  0  0  0  0  0
  -26.3260  -24.9670   56.1560 H   0  0  0  0  0  0  0  0  0  0  0  0
  -21.2040  -23.7630   56.6540 H   0  0  0  0  0  0  0  0  0  0  0  0
  -22.8870  -28.5690   55.2370 H   0  0  0  0  0  0  0  0  0  0  0  0
  -25.4940  -29.5170   54.8880 O   0  0  0  0  0  0  0  0  0  0  0  0
  -26.2950  -30.3570   55.8380 C   0  0  0  0  0  0  0  0  0  0  0  0
  -26.5500  -29.9750   56.8050 H   0  0  0  0  0  0  0  0  0  0  0  0
  -26.6110  -31.3380   55.5500 H   0  0  0  0  0  0  0  0  0  0  0  0
  -26.8660  -30.9560   56.5170 H   0  0  0  0  0  0  0  0  0  0  0  0
  -16.6300  -26.8250   55.4030 C   0  0  0  0  0  0  0  0  0  0  0  0
  -15.7050  -28.0050   55.4530 N   0  0  0  0  0  0  0  0  0  0  0  0
  -16.0770  -25.4490   55.1730 O   0  0  0  0  0  0  0  0  0  0  0  0
  -16.0670  -28.9080   55.6040 H   0  0  0  0  0  0  0  0  0  0  0  0
  -14.7360  -27.8770   55.3350 H   0  0  0  0  0  0  0  0  0  0  0  0
  -18.1750  -29.6930   55.5810 O   0  0  0  0  0 15  0  0  0  0  0  0
  -18.2480  -30.4800   54.3070 C   0  0  0  0  0  3  0  0  0  0  0  0
  -17.2970  -30.2160   54.7190 H   0  0  0  0  0  0  0  0  0  0  0  0
  -19.5830  -30.8490   53.7290 C   0  0  0  0  0  0  0  0  0  0  0  0
  -20.2770  -32.0980   54.1840 C   0  0  0  0  0  0  0  0  0  0  0  0
  -21.6120  -32.4670   53.6060 C   0  0  0  0  0  0  0  0  0  0  0  0
  -22.2510  -31.5870   52.5730 C   0  0  0  0  0  0  0  0  0  0  0  0
  -21.5560  -30.3370   52.1170 C   0  0  0  0  0  0  0  0  0  0  0  0
  -20.2220  -29.9690   52.6950 C   0  0  0  0  0  0  0  0  0  0  0  0
  -19.5270  -28.7200   52.2400 Cl  0  0  0  0  0  0  0  0  0  0  0  0
  -19.8380  -32.7030   54.8940 H   0  0  0  0  0  0  0  0  0  0  0  0
  -22.0890  -33.3260   53.9190 H   0  0  0  0  0  0  0  0  0  0  0  0
  -23.1690  -31.8410   52.1750 H   0  0  0  0  0  0  0  0  0  0  0  0
  -21.9960  -29.7330   51.4070 H   0  0  0  0  0  0  0  0  0  0  0  0
  -16.9880  -30.8970   53.6100 C   0  0  0  0  0  0  0  0  0  0  0  0
  -16.0360  -30.6350   54.0210 H   0  0  0  0  0  0  0  0  0  0  0  0
  -17.0400  -31.4590   52.6990 H   0  0  0  0  0  0  0  0  0  0  0  0
  -16.0880  -31.1960   53.1120 H   0  0  0  0  0  0  0  0  0  0  0  0
  1 13  1  0
  2  1  2  0
  2  6  1  0
  3  2  1  0
  4  3  2  0
  4  5  1  0
  5  1  1  0
  7 15  2  0
  7  8  1  0
  8  9  2  0
  9 10  1  0
  9 17  1  0
 10 11  1  0
 12 11  2  0
 12 18  1  0
 13 12  1  0
 14 13  1  0
 14 10  2  0
 15 14  1  0
 16  8  1  0
 19 15  1  0
 20  7  1  0
 20 21  1  0
 21 24  1  0
 21 22  1  0
 23 21  1  0
 25 26  1  0
 25  4  1  0
 26 28  1  0
 27 25  2  0
 29 26  1  0
 31 32  1  0
 33 34  1  0
 33 31  1  0
 34 40  1  0
 35 41  1  0
 35 34  2  0
 36 35  1  0
 37 36  2  0
 37 38  1  0
 38 33  2  0
 39 38  1  0
 42 36  1  0
 43 37  1  0
 44 45  1  0
 44 31  1  0
 46 44  1  0
 47 44  1  0
M  END
>  <minimizedAffinity>  (249) 
-9.25442314

$$$$

     RDKit          3D

 70 71  0  0  1  0  0  0  0  0999 V2000
  -17.9250  -28.0130   55.1890 C   0  0  0  0  0  0  0  0  0  0  0  0
  -19.2980  -28.2840   54.6500 C   0  0  0  0  0  0  0  0  0  0  0  0
  -20.4410  -27.3870   55.0240 C   0  0  0  0  0  0  0  0  0  0  0  0
  -20.2100  -26.2190   55.9360 C   0  0  0  0  0  0  0  0  0  0  0  0
  -18.8360  -25.9480   56.4750 C   0  0  0  0  0  0  0  0  0  0  0  0
  -17.6940  -26.8450   56.1010 C   0  0  0  0  0  0  0  0  0  0  0  0
  -21.3520  -25.3220   56.3090 C   0  0  0  0  0  3  0  0  0  0  0  0
  -22.7260  -25.5930   55.7710 C   0  0  0  0  0  2  0  0  0  0  0  0
  -22.9570  -26.7610   54.8590 C   0  0  0  0  0  2  0  0  0  0  0  0
  -21.8140  -27.6580   54.4850 N   0  0  0  0  0  2  0  0  0  0  0  0
  -22.0450  -28.8260   53.5730 C   0  0  0  0  0  0  0  0  0  0  0  0
  -20.9030  -29.7230   53.2000 O   0  0  0  0  0  0  0  0  0  0  0  0
  -19.4570  -29.0880   54.0230 H   0  0  0  0  0  0  0  0  0  0  0  0
  -18.6780  -25.1440   57.1020 H   0  0  0  0  0  0  0  0  0  0  0  0
  -21.1880  -24.4880   56.9600 H   0  0  0  0  0  0  0  0  0  0  0  0
  -22.1680  -24.6820   56.5760 H   0  0  0  0  0  0  0  0  0  0  0  0
  -23.5410  -24.9530   56.0380 H   0  0  0  0  0  0  0  0  0  0  0  0
  -23.7060  -25.7860   55.3870 H   0  0  0  0  0  0  0  0  0  0  0  0
  -23.9370  -26.9540   54.4750 H   0  0  0  0  0  0  0  0  0  0  0  0
  -23.1220  -27.5940   54.2080 H   0  0  0  0  0  0  0  0  0  0  0  0
  -14.9790  -33.6270   53.5900 N   0  0  0  0  0  0  0  0  0  0  0  0
  -16.1210  -32.7300   53.9640 C   0  0  0  0  0  3  0  0  0  0  0  0
  -15.8800  -31.2690   54.2030 N   0  0  0  0  0  0  0  0  0  0  0  0
  -17.0230  -30.3720   54.5760 C   0  0  0  0  0  0  0  0  0  0  0  0
  -16.7820  -28.9110   54.8150 N   0  0  0  0  0  0  0  0  0  0  0  0
  -18.4060  -30.9360   54.7110 N   0  0  0  0  0  2  0  0  0  0  0  0
  -18.6470  -32.3970   54.4720 C   0  0  0  0  0  0  0  0  0  0  0  0
  -19.8930  -33.2320   54.5300 N   0  0  0  0  0  0  0  0  0  0  0  0
  -19.5190  -34.6440   54.1920 C   0  0  0  0  0  0  0  0  0  0  0  0
  -18.0440  -34.6830   53.9260 C   0  0  0  0  0  0  0  0  0  0  0  0
  -17.5050  -33.2940   54.0980 C   0  0  0  0  0  0  0  0  0  0  0  0
  -15.1370  -34.5860   53.4330 H   0  0  0  0  0  0  0  0  0  0  0  0
  -15.8750  -28.5410   54.7270 H   0  0  0  0  0  0  0  0  0  0  0  0
  -20.7960  -32.9090   54.7510 H   0  0  0  0  0  0  0  0  0  0  0  0
  -20.1650  -35.4490   54.1510 H   0  0  0  0  0  0  0  0  0  0  0  0
  -17.4950  -35.5190   53.6680 H   0  0  0  0  0  0  0  0  0  0  0  0
  -12.8340  -32.6450   54.6780 C   0  0  0  0  0  0  0  0  0  0  0  0
  -11.4500  -32.0810   54.5440 N   0  0  0  0  0  0  0  0  0  0  0  0
  -10.8290  -31.9350   53.1860 C   0  0  0  0  0  0  0  0  0  0  0  0
  -11.5900  -32.3530   51.9640 C   0  0  0  0  0  0  0  0  0  0  0  0
  -12.9740  -32.9170   52.0980 C   0  0  0  0  0  0  0  0  0  0  0  0
  -13.5950  -33.0630   53.4560 C   0  0  0  0  0  0  0  0  0  0  0  0
   -9.8770  -31.5470   53.0940 H   0  0  0  0  0  0  0  0  0  0  0  0
  -11.1620  -32.2530   51.0300 H   0  0  0  0  0  0  0  0  0  0  0  0
  -13.4980  -33.2050   51.2570 H   0  0  0  0  0  0  0  0  0  0  0  0
  -13.8130  -31.5710   56.8320 N   0  0  0  0  0  0  0  0  0  0  0  0
  -13.4550  -32.7910   56.0360 C   0  0  0  0  0  0  0  0  0  0  0  0
  -13.7200  -34.1570   56.5970 O   0  0  0  0  0  0  0  0  0  0  0  0
  -13.6390  -30.6740   56.4640 H   0  0  0  0  0  0  0  0  0  0  0  0
  -14.4340  -31.7170   58.1890 C   0  0  0  0  0  0  0  0  0  0  0  0
  -14.6230  -32.6910   58.5890 H   0  0  0  0  0  0  0  0  0  0  0  0
  -14.6890  -30.8460   58.7570 H   0  0  0  0  0  0  0  0  0  0  0  0
  -14.8780  -31.8210   59.1570 H   0  0  0  0  0  0  0  0  0  0  0  0
  -23.4190  -29.0970   53.0340 C   0  0  0  0  0  0  0  0  0  0  0  0
  -23.7690  -28.5690   52.1720 H   0  0  0  0  0  0  0  0  0  0  0  0
  -24.3990  -29.2910   52.6500 H   0  0  0  0  0  0  0  0  0  0  0  0
  -24.3010  -30.1080   53.7050 N   0  0  0  0  0  0  0  0  0  0  0  0
  -24.1750  -31.5620   53.3580 C   0  0  0  0  0  0  0  0  0  0  0  0
  -23.4540  -31.8780   52.6310 H   0  0  0  0  0  0  0  0  0  0  0  0
  -24.8040  -32.2830   53.8350 H   0  0  0  0  0  0  0  0  0  0  0  0
  -24.0840  -32.5990   53.1100 H   0  0  0  0  0  0  0  0  0  0  0  0
  -25.3100  -29.6650   54.7220 C   0  0  0  0  0  0  0  0  0  0  0  0
  -25.9400  -30.3860   55.2010 H   0  0  0  0  0  0  0  0  0  0  0  0
  -25.4010  -28.6280   54.9700 H   0  0  0  0  0  0  0  0  0  0  0  0
  -26.0310  -29.3490   55.4480 H   0  0  0  0  0  0  0  0  0  0  0  0
  -16.3200  -26.5740   56.6400 O   0  0  0  0  0  0  0  0  0  0  0  0
  -15.4320  -25.5750   55.9600 C   0  0  0  0  0  0  0  0  0  0  0  0
  -14.4520  -25.3810   56.3440 H   0  0  0  0  0  0  0  0  0  0  0  0
  -15.7780  -25.0550   55.0910 H   0  0  0  0  0  0  0  0  0  0  0  0
  -14.7980  -24.8620   55.4750 H   0  0  0  0  0  0  0  0  0  0  0  0
  1  6  1  0
  2  3  1  0
  2  1  2  0
  3  4  2  0
  4  7  1  0
  4  5  1  0
  5 14  1  0
  6  5  2  0
  6 66  1  0
  7 16  1  0
  7 15  1  0
  8 17  1  0
 10  3  1  0
 11 10  1  0
 12 11  2  0
 13  2  1  0
 18  8  1  0
 19  9  1  0
 20  9  1  0
 22 21  1  0
 22 31  1  0
 22 23  1  0
 23 24  2  0
 24 26  1  0
 24 25  1  0
 25  1  1  0
 27 28  1  0
 27 26  1  0
 28 34  1  0
 29 28  1  0
 30 31  1  0
 30 29  2  0
 31 27  2  0
 32 21  1  0
 33 25  1  0
 35 29  1  0
 36 30  1  0
 37 47  1  0
 38 37  1  0
 39 38  2  0
 40 41  2  0
 40 39  1  0
 41 42  1  0
 42 21  1  0
 42 37  2  0
 43 39  1  0
 44 40  1  0
 45 41  1  0
 46 50  1  0
 47 48  2  0
 47 46  1  0
 49 46  1  0
 50 51  1  0
 50 52  1  0
 50 53  1  0
 54 11  1  0
 54 57  1  0
 55 54  1  0
 56 54  1  0
 57 62  1  0
 58 57  1  0
 58 60  1  0
 59 58  1  0
 61 58  1  0
 62 64  1  0
 62 63  1  0
 62 65  1  0
 67 68  1  0
 67 66  1  0
 69 67  1  0
 70 67  1  0
M  END
>  <minimizedAffinity>  (250) 
-9.46464157

$$$$

     RDKit          3D

 35 37  0  0  0  0  0  0  0  0999 V2000
  -23.7000  -32.0200   52.5350 O   0  0  0  0  0  0  0  0  0  0  0  0
  -22.8300  -30.8260   52.8010 C   0  0  0  0  0  0  0  0  0  0  0  0
  -21.6370  -30.4070   51.9950 N   0  0  0  0  0  0  0  0  0  0  0  0
  -21.0710  -29.1650   52.6170 C   0  0  0  0  0  0  0  0  0  0  0  0
  -19.8720  -28.4040   52.1340 O   0  0  0  0  0  0  0  0  0  0  0  0
  -21.9150  -28.8160   53.8070 C   0  0  0  0  0  0  0  0  0  0  0  0
  -23.0020  -29.8430   53.9210 C   0  0  0  0  0  0  0  0  0  0  0  0
  -21.2870  -30.8670   51.1990 H   0  0  0  0  0  0  0  0  0  0  0  0
  -21.7080  -27.6460   54.7220 C   0  0  0  0  0  0  0  0  0  0  0  0
  -20.3750  -27.4340   55.3780 C   0  0  0  0  0  0  0  0  0  0  0  0
  -20.1680  -26.2630   56.2940 C   0  0  0  0  0  0  0  0  0  0  0  0
  -21.2930  -25.3060   56.5530 C   0  0  0  0  0  0  0  0  0  0  0  0
  -22.6250  -25.5180   55.8970 C   0  0  0  0  0  0  0  0  0  0  0  0
  -23.7500  -24.5600   56.1560 Cl  0  0  0  0  0  0  0  0  0  0  0  0
  -22.8320  -26.6880   54.9820 C   0  0  0  0  0  0  0  0  0  0  0  0
  -19.6020  -28.0930   55.2000 H   0  0  0  0  0  0  0  0  0  0  0  0
  -19.2520  -26.1170   56.7450 H   0  0  0  0  0  0  0  0  0  0  0  0
  -21.1500  -24.5000   57.1830 H   0  0  0  0  0  0  0  0  0  0  0  0
  -23.7490  -26.8340   54.5300 H   0  0  0  0  0  0  0  0  0  0  0  0
  -24.0730  -29.8800   54.9710 N   0  0  0  0  0  0  0  0  0  0  0  0
  -23.8730  -30.2370   55.8660 H   0  0  0  0  0  0  0  0  0  0  0  0
  -25.4500  -29.3730   54.6560 C   0  0  0  0  0  0  0  0  0  0  0  0
  -26.2190  -29.9540   53.5080 C   0  0  0  0  0  0  0  0  0  0  0  0
  -27.5950  -29.4470   53.1930 C   0  0  0  0  0  0  0  0  0  0  0  0
  -28.2020  -28.3580   54.0290 C   0  0  0  0  0  0  0  0  0  0  0  0
  -29.5790  -27.8500   53.7150 Cl  0  0  0  0  0  0  0  0  0  0  0  0
  -27.4320  -27.7770   55.1770 C   0  0  0  0  0  0  0  0  0  0  0  0
  -26.0570  -28.2840   55.4920 C   0  0  0  0  0  0  0  0  0  0  0  0
  -25.8020  -30.7030   52.9330 H   0  0  0  0  0  0  0  0  0  0  0  0
  -28.1250  -29.8460   52.4030 H   0  0  0  0  0  0  0  0  0  0  0  0
  -25.5270  -27.8840   56.2820 H   0  0  0  0  0  0  0  0  0  0  0  0
  -28.0390  -26.6880   56.0120 C   0  0  0  0  0  0  0  0  0  0  0  0
  -29.0460  -27.0280   57.0710 O   0  0  0  0  0  0  0  0  0  0  0  0
  -27.6390  -25.2600   55.7890 O   0  0  0  0  0  0  0  0  0  0  0  0
  -27.0100  -25.0480   55.1280 H   0  0  0  0  0  0  0  0  0  0  0  0
  1  2  2  0
  2  7  1  0
  3  4  1  0
  3  2  1  0
  4  6  1  0
  5  4  2  0
  6  7  2  0
  6  9  1  0
  7 20  1  0
  8  3  1  0
  9 15  2  0
  9 10  1  0
 10 11  2  0
 11 12  1  0
 11 17  1  0
 12 18  1  0
 13 14  1  0
 13 12  2  0
 15 13  1  0
 16 10  1  0
 19 15  1  0
 20 21  1  0
 22 20  1  0
 22 28  1  0
 23 22  2  0
 24 23  1  0
 24 25  2  0
 25 27  1  0
 26 25  1  0
 27 28  2  0
 27 32  1  0
 28 31  1  0
 29 23  1  0
 30 24  1  0
 32 33  2  0
 34 32  1  0
 35 34  1  0
M  END
>  <minimizedAffinity>  (251) 
-8.21625805

$$$$

     RDKit          3D

 36 35  0  0  0  0  0  0  0  0999 V2000
  -13.8000  -32.9670   55.8810 O   0  0  0  0  0  1  0  0  0  0  0  0
  -13.2390  -31.5910   55.6740 C   0  0  0  0  0  2  0  0  0  0  0  0
  -14.1590  -30.4080   55.6100 N   0  0  0  0  0  0  0  0  0  0  0  0
  -15.6390  -30.6000   55.7530 C   0  0  0  0  0  0  0  0  0  0  0  0
  -16.3420  -31.9090   55.9640 N   0  0  0  0  0  0  0  0  0  0  0  0
  -17.8150  -31.6360   56.0520 N   0  0  0  0  0  0  0  0  0  0  0  0
  -18.0220  -30.1590   55.8960 C   0  0  0  0  0  0  0  0  0  0  0  0
  -19.2610  -29.3130   55.8980 N   0  0  0  0  0  0  0  0  0  0  0  0
  -19.1560  -27.8280   55.7160 C   0  0  0  0  0  0  0  0  0  0  0  0
  -17.8120  -27.1880   55.5310 C   0  0  0  0  0  0  0  0  0  0  0  0
  -17.7070  -25.7030   55.3490 Br  0  0  0  0  0  0  0  0  0  0  0  0
  -16.5730  -28.0340   55.5290 C   0  0  0  0  0  0  0  0  0  0  0  0
  -16.6780  -29.5190   55.7120 C   0  0  0  0  0  0  0  0  0  0  0  0
  -13.7910  -29.5050   55.4740 H   0  0  0  0  0  0  0  0  0  0  0  0
  -18.5200  -32.3090   56.1890 H   0  0  0  0  0  0  0  0  0  0  0  0
  -15.6480  -27.5930   55.4020 H   0  0  0  0  0  0  0  0  0  0  0  0
  -20.3950  -26.9830   55.7180 C   0  0  0  0  0  0  0  0  0  0  0  0
  -21.5370  -27.3240   54.8070 C   0  0  0  0  0  0  0  0  0  0  0  0
  -22.7760  -26.4790   54.8090 C   0  0  0  0  0  0  0  0  0  0  0  0
  -22.8730  -25.2920   55.7220 C   0  0  0  0  0  0  0  0  0  0  0  0
  -21.7310  -24.9510   56.6330 C   0  0  0  0  0  0  0  0  0  0  0  0
  -20.4920  -25.7970   56.6310 C   0  0  0  0  0  0  0  0  0  0  0  0
  -21.4700  -28.1400   54.1790 H   0  0  0  0  0  0  0  0  0  0  0  0
  -23.5620  -26.7130   54.1830 H   0  0  0  0  0  0  0  0  0  0  0  0
  -21.7980  -24.1350   57.2610 H   0  0  0  0  0  0  0  0  0  0  0  0
  -19.7070  -25.5620   57.2580 H   0  0  0  0  0  0  0  0  0  0  0  0
  -24.1120  -24.4470   55.7250 O   0  0  0  0  0  0  0  0  0  0  0  0
  -24.8260  -24.6600   55.1560 H   0  0  0  0  0  0  0  0  0  0  0  0
  -11.7580  -31.3980   55.5300 C   0  0  0  0  0 15  0  0  0  0  0  0
  -10.4070  -31.2060   56.1530 C   0  0  0  0  0  2  0  0  0  0  0  0
  -10.5450  -31.2570   54.6600 C   0  0  0  0  0  3  0  0  0  0  0  0
  -10.7020  -31.2610   55.4280 H   0  0  0  0  0  0  0  0  0  0  0  0
   -9.7940  -31.1050   57.0240 H   0  0  0  0  0  0  0  0  0  0  0  0
   -9.4130  -31.0830   55.7790 H   0  0  0  0  0  0  0  0  0  0  0  0
  -10.1010  -31.2210   53.6870 H   0  0  0  0  0  0  0  0  0  0  0  0
  -11.3610  -31.3810   53.9790 H   0  0  0  0  0  0  0  0  0  0  0  0
  2  1  1  0
  3  2  1  0
  3  4  1  0
  4  5  2  0
  5  6  1  0
  6 15  1  0
  7  8  1  0
  7  6  1  0
  9 17  1  0
  9  8  2  0
 10  9  1  0
 11 10  1  0
 12 10  2  0
 12 13  1  0
 13  4  1  0
 13  7  2  0
 14  3  1  0
 16 12  1  0
 17 22  1  0
 18 19  1  0
 18 17  2  0
 19 20  2  0
 20 27  1  0
 20 21  1  0
 21 25  1  0
 22 21  2  0
 22 26  1  0
 23 18  1  0
 24 19  1  0
 28 27  1  0
 30 33  1  0
 31 32  1  0
 34 30  1  0
 35 31  1  0
 36 31  1  0
M  END
>  <minimizedAffinity>  (252) 
-8.65095806

$$$$

     RDKit          3D

 45 47  0  0  0  0  0  0  0  0999 V2000
  -18.6010  -31.4480   54.5960 C   0  0  0  0  0  0  0  0  0  0  0  0
  -19.8320  -31.0200   53.8530 C   0  0  0  0  0  0  0  0  0  0  0  0
  -20.5030  -29.7240   54.1970 C   0  0  0  0  0  0  0  0  0  0  0  0
  -19.9440  -28.8550   55.2850 C   0  0  0  0  0  0  0  0  0  0  0  0
  -18.7130  -29.2830   56.0280 C   0  0  0  0  0  0  0  0  0  0  0  0
  -18.0420  -30.5800   55.6830 C   0  0  0  0  0  0  0  0  0  0  0  0
  -21.3500  -29.4290   53.6860 H   0  0  0  0  0  0  0  0  0  0  0  0
  -18.3290  -28.6860   56.7760 H   0  0  0  0  0  0  0  0  0  0  0  0
  -20.6160  -27.5590   55.6290 C   0  0  0  0  0  0  0  0  0  0  0  0
  -19.8090  -26.4190   56.1760 C   0  0  0  0  0  0  0  0  0  0  0  0
  -20.4800  -25.1220   56.5210 C   0  0  0  0  0  0  0  0  0  0  0  0
  -21.9580  -24.9660   56.3180 C   0  0  0  0  0  0  0  0  0  0  0  0
  -22.6300  -23.6700   56.6630 Cl  0  0  0  0  0  0  0  0  0  0  0  0
  -22.7650  -26.1060   55.7710 C   0  0  0  0  0  0  0  0  0  0  0  0
  -22.0940  -27.4030   55.4270 C   0  0  0  0  0  0  0  0  0  0  0  0
  -18.7920  -26.5260   56.3160 H   0  0  0  0  0  0  0  0  0  0  0  0
  -19.9250  -24.3380   56.8970 H   0  0  0  0  0  0  0  0  0  0  0  0
  -23.7820  -25.9990   55.6320 H   0  0  0  0  0  0  0  0  0  0  0  0
  -22.6490  -28.1870   55.0500 H   0  0  0  0  0  0  0  0  0  0  0  0
  -16.8110  -31.0070   56.4270 C   0  0  0  0  0  0  0  0  0  0  0  0
  -15.4700  -30.4670   56.0290 C   0  0  0  0  0  0  0  0  0  0  0  0
  -14.2390  -30.8950   56.7720 C   0  0  0  0  0  0  0  0  0  0  0  0
  -14.3500  -31.8630   57.9130 C   0  0  0  0  0  0  0  0  0  0  0  0
  -15.6920  -32.4030   58.3100 C   0  0  0  0  0  0  0  0  0  0  0  0
  -16.9230  -31.9750   57.5670 C   0  0  0  0  0  0  0  0  0  0  0  0
  -15.3930  -29.8010   55.2440 H   0  0  0  0  0  0  0  0  0  0  0  0
  -13.3160  -30.5240   56.4990 H   0  0  0  0  0  0  0  0  0  0  0  0
  -15.7680  -33.0690   59.0950 H   0  0  0  0  0  0  0  0  0  0  0  0
  -17.8460  -32.3470   57.8400 H   0  0  0  0  0  0  0  0  0  0  0  0
  -13.1190  -32.2910   58.6560 S   0  0  2  0  0  0  0  0  0  0  0  0
  -13.6180  -31.5910   59.8850 O   0  0  0  0  0  0  0  0  0  0  0  0
  -12.6210  -32.9910   57.4270 O   0  0  0  0  0  0  0  0  0  0  0  0
  -11.8890  -32.7190   59.3990 N   0  0  0  0  0  0  0  0  0  0  0  0
  -11.7640  -32.4520   60.3760 H   0  0  0  0  0  0  0  0  0  0  0  0
  -11.1760  -33.2770   58.9280 H   0  0  0  0  0  0  0  0  0  0  0  0
  -20.3910  -31.8880   52.7650 C   0  0  0  0  0  0  0  0  0  0  0  0
  -19.4780  -32.7680   51.9630 N   0  0  0  0  0  0  0  0  0  0  0  0
  -21.8640  -31.8780   52.4790 O   0  0  0  0  0  0  0  0  0  0  0  0
  -18.5120  -32.7750   52.1510 H   0  0  0  0  0  0  0  0  0  0  0  0
  -19.8450  -33.3380   51.2490 H   0  0  0  0  0  0  0  0  0  0  0  0
  -17.9300  -32.7440   54.2510 O   0  0  0  0  0  0  0  0  0  0  0  0
  -18.3400  -34.0090   54.9450 C   0  0  0  0  0  0  0  0  0  0  0  0
  -19.1130  -33.9870   55.6860 H   0  0  0  0  0  0  0  0  0  0  0  0
  -17.8620  -34.9340   54.6990 H   0  0  0  0  0  0  0  0  0  0  0  0
  -18.6340  -34.9120   55.4400 H   0  0  0  0  0  0  0  0  0  0  0  0
  1  6  1  0
  2  3  1  0
  2  1  2  0
  3  4  2  0
  4  9  1  0
  4  5  1  0
  5  8  1  0
  6  5  2  0
  6 20  1  0
  7  3  1  0
  9 10  1  0
 10 16  1  0
 10 11  2  0
 11 17  1  0
 12 11  1  0
 12 13  1  0
 14 12  2  0
 15  9  2  0
 15 14  1  0
 18 14  1  0
 19 15  1  0
 20 25  1  0
 21 20  2  0
 21 22  1  0
 22 23  2  0
 23 24  1  0
 23 30  1  0
 24 28  1  0
 25 29  1  0
 25 24  2  0
 26 21  1  0
 27 22  1  0
 30 33  1  0
 30 31  2  0
 32 30  2  0
 33 34  1  0
 35 33  1  0
 36  2  1  0
 37 39  1  0
 37 36  1  0
 38 36  2  0
 40 37  1  0
 41  1  1  0
 41 42  1  0
 42 45  1  0
 42 43  1  0
 44 42  1  0
M  END
>  <minimizedAffinity>  (253) 
-8.28268909

$$$$

     RDKit          3D

 48 50  0  0  0  0  0  0  0  0999 V2000
  -14.5740  -32.8280   56.8210 C   0  0  0  0  0  0  0  0  0  0  0  0
  -15.7210  -32.7350   57.7830 C   0  0  0  0  0  0  0  0  0  0  0  0
  -16.9940  -32.0590   57.3690 C   0  0  0  0  0  0  0  0  0  0  0  0
  -17.1200  -31.4740   55.9930 C   0  0  0  0  0  0  0  0  0  0  0  0
  -15.9730  -31.5660   55.0310 C   0  0  0  0  0  0  0  0  0  0  0  0
  -14.7000  -32.2430   55.4450 C   0  0  0  0  0  0  0  0  0  0  0  0
  -13.5530  -32.3360   54.4830 Cl  0  0  0  0  0  0  0  0  0  0  0  0
  -15.6340  -33.1380   58.7290 H   0  0  0  0  0  0  0  0  0  0  0  0
  -17.7830  -31.9950   58.0310 H   0  0  0  0  0  0  0  0  0  0  0  0
  -16.0600  -31.1640   54.0850 H   0  0  0  0  0  0  0  0  0  0  0  0
  -18.3930  -30.7970   55.5800 N   0  0  0  0  0  0  0  0  0  0  0  0
  -19.3800  -31.5220   54.7130 C   0  0  0  0  0  0  0  0  0  0  0  0
  -19.0940  -32.9230   54.2600 N   0  0  0  0  0  0  0  0  0  0  0  0
  -20.0820  -33.6470   53.3940 C   0  0  0  0  0  0  0  0  0  0  0  0
  -21.3550  -32.9700   52.9800 N   0  0  0  0  0  0  0  0  0  0  0  0
  -21.6400  -31.5690   53.4330 C   0  0  0  0  0  0  0  0  0  0  0  0
  -20.6530  -30.8450   54.3000 C   0  0  0  0  0  0  0  0  0  0  0  0
  -18.5810  -29.8780   55.8770 H   0  0  0  0  0  0  0  0  0  0  0  0
  -19.8850  -34.6110   53.0820 H   0  0  0  0  0  0  0  0  0  0  0  0
  -22.5170  -31.1030   53.1490 H   0  0  0  0  0  0  0  0  0  0  0  0
  -20.9390  -29.4440   54.7530 C   0  0  0  0  0  0  0  0  0  0  0  0
  -21.2250  -28.0420   55.2050 C   0  0  0  0  0  0  0  0  0  0  0  0
  -21.5110  -26.6410   55.6580 C   0  0  0  0  0  0  0  0  0  0  0  0
  -20.3850  -25.7470   56.0870 C   0  0  0  0  0  0  0  0  0  0  0  0
  -20.6710  -24.3460   56.5390 C   0  0  0  0  0  0  0  0  0  0  0  0
  -22.0830  -23.8390   56.5640 C   0  0  0  0  0  0  0  0  0  0  0  0
  -23.2080  -24.7330   56.1350 C   0  0  0  0  0  0  0  0  0  0  0  0
  -22.9220  -26.1340   55.6830 C   0  0  0  0  0  0  0  0  0  0  0  0
  -19.4140  -26.0960   56.0700 H   0  0  0  0  0  0  0  0  0  0  0  0
  -19.8970  -23.7310   56.8340 H   0  0  0  0  0  0  0  0  0  0  0  0
  -22.2790  -22.8750   56.8750 H   0  0  0  0  0  0  0  0  0  0  0  0
  -24.1790  -24.3840   56.1520 H   0  0  0  0  0  0  0  0  0  0  0  0
  -23.6960  -26.7490   55.3880 H   0  0  0  0  0  0  0  0  0  0  0  0
  -13.3010  -33.5050   57.2340 O   0  0  0  0  0  1  0  0  0  0  0  0
  -12.8180  -33.3930   58.6500 C   0  0  0  0  0  3  0  0  0  0  0  0
  -13.1330  -34.1090   59.3810 H   0  0  0  0  0  0  0  0  0  0  0  0
  -13.4780  -34.1880   58.3700 H   0  0  0  0  0  0  0  0  0  0  0  0
  -11.7080  -29.3220   61.6810 F   0  0  0  0  0  0  0  0  0  0  0  0
  -11.3380  -30.2440   60.5570 C   0  0  0  0  0  0  0  0  0  0  0  0
  -10.0430  -30.0510   59.8250 C   0  0  0  0  0  0  0  0  0  0  0  0
   -9.6730  -30.9730   58.7010 C   0  0  0  0  0  0  0  0  0  0  0  0
  -10.5980  -32.0870   58.3090 C   0  0  0  0  0  0  0  0  0  0  0  0
  -11.8930  -32.2790   59.0420 C   0  0  0  0  0  0  0  0  0  0  0  0
  -12.2630  -31.3580   60.1660 C   0  0  0  0  0  0  0  0  0  0  0  0
   -9.4070  -29.2850   60.0940 H   0  0  0  0  0  0  0  0  0  0  0  0
   -8.7820  -30.8410   58.1970 H   0  0  0  0  0  0  0  0  0  0  0  0
  -10.3440  -32.7220   57.5360 H   0  0  0  0  0  0  0  0  0  0  0  0
  -13.1540  -31.4900   60.6700 H   0  0  0  0  0  0  0  0  0  0  0  0
  1 34  1  0
  1  2  1  0
  2  8  1  0
  3  2  2  0
  3  9  1  0
  4  3  1  0
  5  6  1  0
  5  4  2  0
  6  1  2  0
  7  6  1  0
 10  5  1  0
 11 18  1  0
 11  4  1  0
 12 11  1  0
 13 12  1  0
 14 13  2  0
 15 14  1  0
 15 16  2  0
 16 17  1  0
 17 12  2  0
 17 21  1  0
 19 14  1  0
 20 16  1  0
 21 22  3  0
 22 23  1  0
 23 28  2  0
 23 24  1  0
 24 25  2  0
 25 26  1  0
 25 30  1  0
 26 31  1  0
 27 32  1  0
 27 26  2  0
 28 27  1  0
 29 24  1  0
 33 28  1  0
 35 43  1  0
 35 36  1  0
 37 35  1  0
 39 38  1  0
 40 45  1  0
 40 39  2  0
 41 40  1  0
 42 41  2  0
 42 43  1  0
 43 44  2  0
 44 39  1  0
 44 48  1  0
 46 41  1  0
 47 42  1  0
M  END
>  <minimizedAffinity>  (254) 
-10.0789938

$$$$

     RDKit          3D

 51 55  0  0  1  0  0  0  0  0999 V2000
  -19.1510  -29.3800   53.4530 C   0  0  0  0  0  0  0  0  0  0  0  0
  -18.9700  -30.8170   53.8420 C   0  0  0  0  0  0  0  0  0  0  0  0
  -17.8030  -31.2230   54.6930 C   0  0  0  0  0  0  0  0  0  0  0  0
  -16.8170  -30.1910   55.1540 C   0  0  0  0  0  0  0  0  0  0  0  0
  -16.9980  -28.7540   54.7650 C   0  0  0  0  0  0  0  0  0  0  0  0
  -15.8720  -27.9650   55.3650 C   0  0  0  0  0  0  0  0  0  0  0  0
  -14.9950  -28.9150   56.1250 N   0  0  0  0  0  0  0  0  0  0  0  0
  -15.5790  -30.2900   55.9950 N   0  0  0  0  0  0  0  0  0  0  0  0
  -18.1650  -28.3480   53.9140 C   0  0  0  0  0  0  0  0  0  0  0  0
  -19.6490  -31.5270   53.5250 H   0  0  0  0  0  0  0  0  0  0  0  0
  -17.6790  -32.2110   54.9610 H   0  0  0  0  0  0  0  0  0  0  0  0
  -15.7260  -26.9480   55.2720 H   0  0  0  0  0  0  0  0  0  0  0  0
  -18.2900  -27.3590   53.6460 H   0  0  0  0  0  0  0  0  0  0  0  0
  -15.0230  -31.5460   56.6000 C   0  0  0  0  0  0  0  0  0  0  0  0
  -15.3880  -32.5000   56.2820 H   0  0  0  0  0  0  0  0  0  0  0  0
  -14.6260  -32.4410   57.0310 H   0  0  0  0  0  0  0  0  0  0  0  0
  -13.9550  -31.4630   57.6500 C   0  0  0  0  0  0  0  0  0  0  0  0
  -14.3230  -31.1540   59.0710 C   0  0  0  0  0  0  0  0  0  0  0  0
  -13.2550  -31.0710   60.1210 C   0  0  0  0  0  0  0  0  0  0  0  0
  -11.8190  -31.2970   59.7510 C   0  0  0  0  0  0  0  0  0  0  0  0
  -11.4510  -31.6070   58.3300 C   0  0  0  0  0  0  0  0  0  0  0  0
  -12.5190  -31.6900   57.2790 C   0  0  0  0  0  0  0  0  0  0  0  0
  -15.3100  -30.9980   59.3270 H   0  0  0  0  0  0  0  0  0  0  0  0
  -13.5080  -30.8580   61.0990 H   0  0  0  0  0  0  0  0  0  0  0  0
  -11.0850  -31.2410   60.4720 H   0  0  0  0  0  0  0  0  0  0  0  0
  -10.4640  -31.7630   58.0740 H   0  0  0  0  0  0  0  0  0  0  0  0
  -12.2670  -31.9020   56.3020 H   0  0  0  0  0  0  0  0  0  0  0  0
  -20.3180  -28.9750   52.6020 N   0  0  0  0  0  0  0  0  0  0  0  0
  -20.1700  -28.4580   51.7780 H   0  0  0  0  0  0  0  0  0  0  0  0
  -22.5720  -26.4480   55.5660 C   0  0  0  0  0  0  0  0  0  0  0  0
  -21.8210  -27.2900   54.5780 C   0  0  0  0  0  0  0  0  0  0  0  0
  -22.4620  -28.5150   53.9960 C   0  0  0  0  0  0  0  0  0  0  0  0
  -21.7110  -29.3570   53.0080 C   0  0  0  0  0  3  0  0  0  0  0  0
  -22.3520  -30.5820   52.4260 N   0  0  0  0  0  0  0  0  0  0  0  0
  -23.7450  -30.9640   52.8310 C   0  0  0  0  0  0  0  0  0  0  0  0
  -24.4960  -30.1220   53.8190 N   0  0  0  0  0  2  0  0  0  0  0  0
  -23.8550  -28.8970   54.4010 C   0  0  0  0  0  0  0  0  0  0  0  0
  -24.6060  -28.0550   55.3890 C   0  0  0  0  0  0  0  0  0  0  0  0
  -23.9640  -26.8300   55.9710 N   0  0  0  0  0  0  0  0  0  0  0  0
  -20.8620  -27.0270   54.2980 H   0  0  0  0  0  0  0  0  0  0  0  0
  -24.1860  -31.8070   52.4310 H   0  0  0  0  0  0  0  0  0  0  0  0
  -25.5640  -28.3180   55.6680 H   0  0  0  0  0  0  0  0  0  0  0  0
  -21.9310  -25.2230   56.1480 N   0  0  0  0  0  0  0  0  0  0  0  0
  -20.4580  -25.2100   56.4300 C   0  0  0  0  0  0  0  0  0  0  0  0
  -19.8640  -26.0740   56.2160 H   0  0  0  0  0  0  0  0  0  0  0  0
  -20.0000  -24.3360   56.8450 H   0  0  0  0  0  0  0  0  0  0  0  0
  -19.4060  -25.2010   56.6320 H   0  0  0  0  0  0  0  0  0  0  0  0
  -22.7630  -24.0110   56.4480 C   0  0  0  0  0  0  0  0  0  0  0  0
  -22.3050  -23.1380   56.8630 H   0  0  0  0  0  0  0  0  0  0  0  0
  -23.8140  -24.0200   56.2460 H   0  0  0  0  0  0  0  0  0  0  0  0
  -23.3560  -23.1470   56.6610 H   0  0  0  0  0  0  0  0  0  0  0  0
  1  2  2  0
  1  9  1  0
  2  3  1  0
  3 11  1  0
  3  4  2  0
  4  8  1  0
  5  4  1  0
  5  6  1  0
  6  7  2  0
  8  7  1  0
  8 14  1  0
  9  5  2  0
 10  2  1  0
 12  6  1  0
 13  9  1  0
 14 16  1  0
 14 17  1  0
 15 14  1  0
 17 18  1  0
 18 23  1  0
 18 19  2  0
 19 24  1  0
 20 19  1  0
 20 25  1  0
 21 20  2  0
 22 17  2  0
 22 21  1  0
 26 21  1  0
 27 22  1  0
 28  1  1  0
 29 28  1  0
 30 39  1  0
 30 43  1  0
 31 30  2  0
 32 37  2  0
 32 31  1  0
 33 28  1  0
 33 32  1  0
 34 35  2  0
 34 33  1  0
 35 36  1  0
 36 37  1  0
 37 38  1  0
 38 42  1  0
 38 39  2  0
 40 31  1  0
 41 35  1  0
 43 44  1  0
 43 48  1  0
 44 47  1  0
 44 46  1  0
 45 44  1  0
 48 51  1  0
 48 49  1  0
 50 48  1  0
M  END
>  <minimizedAffinity>  (255) 
-9.61347961

$$$$

     RDKit          3D

 47 51  0  0  0  0  0  0  0  0999 V2000
  -13.4190  -33.8390   56.8940 N   0  0  0  0  0  0  0  0  0  0  0  0
  -14.7310  -33.3200   56.3850 C   0  0  0  0  0  0  0  0  0  0  0  0
  -15.8000  -34.2800   55.9520 N   0  0  0  0  0  0  0  0  0  0  0  0
  -17.1120  -33.7620   55.4430 C   0  0  0  0  0  0  0  0  0  0  0  0
  -17.3550  -32.2830   55.3660 C   0  0  0  0  0  0  0  0  0  0  0  0
  -16.2870  -31.3230   55.7990 C   0  0  0  0  0  0  0  0  0  0  0  0
  -14.9750  -31.8430   56.3080 N   0  0  0  0  0  0  0  0  0  0  0  0
  -13.2600  -34.8090   56.9440 H   0  0  0  0  0  0  0  0  0  0  0  0
  -17.8470  -34.4210   55.1450 H   0  0  0  0  0  0  0  0  0  0  0  0
  -18.2580  -31.9260   55.0160 H   0  0  0  0  0  0  0  0  0  0  0  0
  -16.5300  -29.8460   55.7230 C   0  0  0  0  0  0  0  0  0  0  0  0
  -15.4860  -28.7890   55.5200 C   0  0  0  0  0  0  0  0  0  0  0  0
  -16.1710  -27.4540   55.5070 N   0  0  0  0  0  0  0  0  0  0  0  0
  -17.6400  -27.6870   55.7030 N   0  0  0  0  0  0  0  0  0  0  0  0
  -18.8050  -26.7440   55.7770 N   0  0  0  0  0  0  0  0  0  0  0  0
  -20.1910  -27.2790   55.9840 C   0  0  0  0  0  0  0  0  0  0  0  0
  -20.4120  -28.7560   56.1170 C   0  0  0  0  0  0  0  0  0  0  0  0
  -19.2480  -29.6990   56.0430 C   0  0  0  0  0  0  0  0  0  0  0  0
  -17.8620  -29.1650   55.8360 C   0  0  0  0  0  0  0  0  0  0  0  0
  -14.4730  -28.9510   55.4080 H   0  0  0  0  0  0  0  0  0  0  0  0
  -21.3660  -29.1240   56.2600 H   0  0  0  0  0  0  0  0  0  0  0  0
  -19.4010  -30.7160   56.1350 H   0  0  0  0  0  0  0  0  0  0  0  0
  -21.3550  -26.3360   56.0580 C   0  0  0  0  0  0  0  0  0  0  0  0
  -22.7300  -26.8130   55.6970 C   0  0  0  0  0  0  0  0  0  0  0  0
  -23.8950  -25.8700   55.7710 C   0  0  0  0  0  0  0  0  0  0  0  0
  -23.6830  -24.4500   56.2060 C   0  0  0  0  0  0  0  0  0  0  0  0
  -22.3080  -23.9730   56.5670 C   0  0  0  0  0  0  0  0  0  0  0  0
  -21.1430  -24.9160   56.4930 C   0  0  0  0  0  0  0  0  0  0  0  0
  -22.8760  -27.7900   55.3970 H   0  0  0  0  0  0  0  0  0  0  0  0
  -24.8410  -26.1980   55.5220 H   0  0  0  0  0  0  0  0  0  0  0  0
  -24.4840  -23.8010   56.2570 H   0  0  0  0  0  0  0  0  0  0  0  0
  -22.1620  -22.9960   56.8670 H   0  0  0  0  0  0  0  0  0  0  0  0
  -20.1970  -24.5880   56.7420 H   0  0  0  0  0  0  0  0  0  0  0  0
  -11.4130  -31.1890   59.0630 C   0  0  0  0  0  0  0  0  0  0  0  0
  -10.2140  -30.9610   58.1930 C   0  0  0  0  0  0  0  0  0  0  0  0
  -10.0820  -31.6910   56.8890 C   0  0  0  0  0  0  0  0  0  0  0  0
  -11.1510  -32.6510   56.4560 C   0  0  0  0  0  0  0  0  0  0  0  0
  -12.3500  -32.8800   57.3260 C   0  0  0  0  0  0  0  0  0  0  0  0
  -12.4820  -32.1490   58.6300 C   0  0  0  0  0  0  0  0  0  0  0  0
   -9.4780  -30.3000   58.4900 H   0  0  0  0  0  0  0  0  0  0  0  0
   -9.2560  -31.5330   56.2900 H   0  0  0  0  0  0  0  0  0  0  0  0
  -11.0600  -33.1530   55.5600 H   0  0  0  0  0  0  0  0  0  0  0  0
  -13.3070  -32.3060   59.2290 H   0  0  0  0  0  0  0  0  0  0  0  0
  -11.6750  -29.7270   61.6700 F   0  0  0  0  0  0  0  0  0  0  0  0
  -11.5450  -30.4580   60.3660 C   0  0  0  0  0  0  0  0  0  0  0  0
  -12.8990  -31.0690   60.5720 F   0  0  0  0  0  0  0  0  0  0  0  0
  -10.1900  -29.8480   60.1600 F   0  0  0  0  0  0  0  0  0  0  0  0
  1  8  1  0
  1 38  1  0
  2  1  1  0
  3  2  2  0
  4  3  1  0
  5  4  2  0
  5  6  1  0
  6  7  2  0
  7  2  1  0
  9  4  1  0
 10  5  1  0
 11  6  1  0
 11 19  2  0
 12 11  1  0
 13 12  2  0
 13 14  1  0
 14 15  1  0
 14 19  1  0
 15 16  2  0
 16 23  1  0
 16 17  1  0
 17 21  1  0
 18 17  2  0
 18 22  1  0
 19 18  1  0
 20 12  1  0
 23 28  1  0
 24 25  1  0
 24 23  2  0
 25 26  2  0
 26 31  1  0
 26 27  1  0
 27 32  1  0
 28 27  2  0
 28 33  1  0
 29 24  1  0
 30 25  1  0
 34 45  1  0
 35 40  1  0
 35 34  2  0
 36 35  1  0
 37 36  2  0
 37 38  1  0
 38 39  2  0
 39 34  1  0
 39 43  1  0
 41 36  1  0
 42 37  1  0
 45 46  1  0
 45 44  1  0
 47 45  1  0
M  END
>  <minimizedAffinity>  (256) 
-10.5390139

$$$$

     RDKit          3D

 42 45  0  0  0  0  0  0  0  0999 V2000
  -16.5250  -30.5390   55.2350 C   0  0  0  0  0  0  0  0  0  0  0  0
  -16.8630  -31.9290   54.7810 C   0  0  0  0  0  0  0  0  0  0  0  0
  -18.2880  -32.2970   54.4910 C   0  0  0  0  0  0  0  0  0  0  0  0
  -19.3750  -31.2770   54.6550 N   0  0  0  0  0  0  0  0  0  0  0  0
  -19.0370  -29.8880   55.1090 C   0  0  0  0  0  0  0  0  0  0  0  0
  -20.1240  -28.8670   55.2720 C   0  0  0  0  0  0  0  0  0  0  0  0
  -19.7870  -27.4780   55.7260 C   0  0  0  0  0  0  0  0  0  0  0  0
  -18.3620  -27.1090   56.0160 C   0  0  0  0  0  0  0  0  0  0  0  0
  -17.2750  -28.1300   55.8520 C   0  0  0  0  0  0  0  0  0  0  0  0
  -17.6130  -29.5190   55.3990 C   0  0  0  0  0  0  0  0  0  0  0  0
  -16.1150  -32.6310   54.6680 H   0  0  0  0  0  0  0  0  0  0  0  0
  -18.5200  -33.2530   54.1790 H   0  0  0  0  0  0  0  0  0  0  0  0
  -21.1050  -29.1210   55.0730 H   0  0  0  0  0  0  0  0  0  0  0  0
  -18.1290  -26.1530   56.3280 H   0  0  0  0  0  0  0  0  0  0  0  0
  -16.2940  -27.8760   56.0520 H   0  0  0  0  0  0  0  0  0  0  0  0
  -20.8740  -26.4570   55.8900 C   0  0  0  0  0  0  0  0  0  0  0  0
  -22.2990  -26.8270   55.6020 C   0  0  0  0  0  0  0  0  0  0  0  0
  -23.3860  -25.8060   55.7660 C   0  0  0  0  0  0  0  0  0  0  0  0
  -23.0480  -24.4160   56.2180 C   0  0  0  0  0  0  0  0  0  0  0  0
  -21.6230  -24.0470   56.5050 C   0  0  0  0  0  0  0  0  0  0  0  0
  -20.5360  -25.0670   56.3410 N   0  0  0  0  0  0  0  0  0  0  0  0
  -22.5310  -27.7830   55.2910 H   0  0  0  0  0  0  0  0  0  0  0  0
  -24.3660  -26.0610   55.5680 H   0  0  0  0  0  0  0  0  0  0  0  0
  -23.7960  -23.7140   56.3300 H   0  0  0  0  0  0  0  0  0  0  0  0
  -21.3900  -23.0900   56.8160 H   0  0  0  0  0  0  0  0  0  0  0  0
  -15.1010  -30.1710   55.5250 N   0  0  0  0  0  0  0  0  0  0  0  0
  -14.6650  -29.4500   55.0150 H   0  0  0  0  0  0  0  0  0  0  0  0
  -13.3700  -31.9810   56.2150 C   0  0  0  0  0  0  0  0  0  0  0  0
  -12.6090  -32.7100   57.2820 C   0  0  0  0  0  0  0  0  0  0  0  0
  -12.8170  -32.3590   58.7260 C   0  0  0  0  0  0  0  0  0  0  0  0
  -13.7860  -31.2780   59.1020 C   0  0  0  0  0  0  0  0  0  0  0  0
  -14.5480  -30.5490   58.0350 C   0  0  0  0  0  0  0  0  0  0  0  0
  -14.3390  -30.9000   56.5920 C   0  0  0  0  0  0  0  0  0  0  0  0
  -11.9420  -33.4540   57.0230 H   0  0  0  0  0  0  0  0  0  0  0  0
  -12.2930  -32.8610   59.4600 H   0  0  0  0  0  0  0  0  0  0  0  0
  -15.2150  -29.8050   58.2940 H   0  0  0  0  0  0  0  0  0  0  0  0
  -13.1620  -32.3330   54.7720 C   0  0  0  0  0  0  0  0  0  0  0  0
  -12.4700  -33.1040   54.5040 H   0  0  0  0  0  0  0  0  0  0  0  0
  -13.7050  -31.8120   54.0110 H   0  0  0  0  0  0  0  0  0  0  0  0
  -13.0130  -32.5830   53.7420 H   0  0  0  0  0  0  0  0  0  0  0  0
  -13.9950  -30.9260   60.5450 O   0  0  0  0  0  0  0  0  0  0  0  0
  -14.6010  -30.2510   60.7800 H   0  0  0  0  0  0  0  0  0  0  0  0
  1 10  1  0
  1 26  1  0
  2  1  2  0
  3  4  2  0
  3  2  1  0
  4  5  1  0
  5  6  2  0
  5 10  1  0
  6  7  1  0
  7 16  1  0
  7  8  2  0
  8 14  1  0
  9  8  1  0
  9 15  1  0
 10  9  2  0
 11  2  1  0
 12  3  1  0
 13  6  1  0
 16 21  1  0
 17 18  1  0
 17 16  2  0
 18 19  2  0
 19 24  1  0
 19 20  1  0
 20 25  1  0
 21 20  2  0
 22 17  1  0
 23 18  1  0
 26 33  1  0
 27 26  1  0
 28 33  2  0
 28 29  1  0
 29 30  2  0
 30 31  1  0
 30 35  1  0
 31 41  1  0
 32 36  1  0
 32 31  2  0
 33 32  1  0
 34 29  1  0
 37 28  1  0
 38 37  1  0
 39 37  1  0
 40 37  1  0
 41 42  1  0
M  END
>  <minimizedAffinity>  (257) 
-8.71248436

$$$$

     RDKit          3D

 34 36  0  0  0  0  0  0  0  0999 V2000
  -16.5970  -31.1730   54.3140 N   0  0  0  0  0  0  0  0  0  0  0  0
  -17.6540  -30.1450   54.0380 C   0  0  0  0  0  0  0  0  0  0  0  0
  -18.2060  -29.7870   52.6890 N   0  0  0  0  0  0  0  0  0  0  0  0
  -19.2370  -28.7160   52.8800 C   0  0  0  0  0  0  0  0  0  0  0  0
  -19.3240  -28.4110   54.3460 C   0  0  0  0  0  0  0  0  0  0  0  0
  -18.3460  -29.2950   55.0610 O   0  0  0  0  0  0  0  0  0  0  0  0
  -16.2010  -31.6830   53.5710 H   0  0  0  0  0  0  0  0  0  0  0  0
  -19.7910  -28.2670   52.1330 H   0  0  0  0  0  0  0  0  0  0  0  0
  -20.2310  -27.4010   54.9840 C   0  0  0  0  0  0  0  0  0  0  0  0
  -19.6640  -26.3610   55.9040 C   0  0  0  0  0  0  0  0  0  0  0  0
  -20.5710  -25.3500   56.5420 C   0  0  0  0  0  0  0  0  0  0  0  0
  -22.0440  -25.3800   56.2610 C   0  0  0  0  0  0  0  0  0  0  0  0
  -22.6110  -26.4210   55.3410 C   0  0  0  0  0  0  0  0  0  0  0  0
  -21.7040  -27.4310   54.7020 C   0  0  0  0  0  0  0  0  0  0  0  0
  -18.6510  -26.3400   56.0970 H   0  0  0  0  0  0  0  0  0  0  0  0
  -20.1810  -24.6340   57.1750 H   0  0  0  0  0  0  0  0  0  0  0  0
  -22.6670  -24.6840   56.7000 H   0  0  0  0  0  0  0  0  0  0  0  0
  -23.6240  -26.4420   55.1470 H   0  0  0  0  0  0  0  0  0  0  0  0
  -22.0940  -28.1470   54.0700 H   0  0  0  0  0  0  0  0  0  0  0  0
  -15.1750  -30.4840   56.3760 C   0  0  0  0  0  0  0  0  0  0  0  0
  -14.7220  -30.7340   57.7840 C   0  0  0  0  0  0  0  0  0  0  0  0
  -15.2380  -31.9230   58.5370 C   0  0  0  0  0  0  0  0  0  0  0  0
  -16.2070  -32.8630   57.8830 C   0  0  0  0  0  0  0  0  0  0  0  0
  -16.6610  -32.6130   56.4760 C   0  0  0  0  0  0  0  0  0  0  0  0
  -16.1440  -31.4230   55.7220 C   0  0  0  0  0  0  0  0  0  0  0  0
  -14.0550  -30.0870   58.2340 H   0  0  0  0  0  0  0  0  0  0  0  0
  -14.9260  -32.0960   59.5060 H   0  0  0  0  0  0  0  0  0  0  0  0
  -16.5630  -33.6810   58.4020 H   0  0  0  0  0  0  0  0  0  0  0  0
  -17.3280  -33.2590   56.0250 H   0  0  0  0  0  0  0  0  0  0  0  0
  -14.6590  -29.2940   55.6220 O   0  0  0  0  0  0  0  0  0  0  0  0
  -15.3470  -27.9680   55.7510 C   0  0  0  0  0  0  0  0  0  0  0  0
  -16.2070  -27.8700   56.3810 H   0  0  0  0  0  0  0  0  0  0  0  0
  -14.9790  -27.1190   55.2140 H   0  0  0  0  0  0  0  0  0  0  0  0
  -15.8380  -27.0210   55.8440 H   0  0  0  0  0  0  0  0  0  0  0  0
  1 25  1  0
  2  1  1  0
  2  6  1  0
  3  4  1  0
  3  2  2  0
  4  5  2  0
  5  9  1  0
  5  6  1  0
  7  1  1  0
  8  4  1  0
  9 10  1  0
 10 15  1  0
 10 11  2  0
 11 16  1  0
 12 11  1  0
 12 17  1  0
 13 12  2  0
 14  9  2  0
 14 13  1  0
 18 13  1  0
 19 14  1  0
 20 21  1  0
 21 26  1  0
 21 22  2  0
 22 27  1  0
 23 28  1  0
 23 22  1  0
 24 23  2  0
 25 20  2  0
 25 24  1  0
 29 24  1  0
 30 31  1  0
 30 20  1  0
 31 34  1  0
 31 32  1  0
 33 31  1  0
M  END
>  <minimizedAffinity>  (258) 
-7.44299459

$$$$

     RDKit          3D

 53 56  0  0  0  0  0  0  0  0999 V2000
  -18.8180  -26.4710   55.8990 C   0  0  0  0  0  0  0  0  0  0  0  0
  -19.3510  -27.8620   56.0760 C   0  0  0  0  0  0  0  0  0  0  0  0
  -18.5230  -29.0410   55.6580 C   0  0  0  0  0  0  0  0  0  0  0  0
  -17.1630  -28.8290   55.0620 C   0  0  0  0  0  0  0  0  0  0  0  0
  -16.6300  -27.4390   54.8850 C   0  0  0  0  0  0  0  0  0  0  0  0
  -17.4580  -26.2590   55.3030 C   0  0  0  0  0  0  0  0  0  0  0  0
  -20.2870  -28.0080   56.4860 H   0  0  0  0  0  0  0  0  0  0  0  0
  -18.8900  -29.9980   55.7800 H   0  0  0  0  0  0  0  0  0  0  0  0
  -15.6940  -27.2930   54.4750 H   0  0  0  0  0  0  0  0  0  0  0  0
  -17.0910  -25.3020   55.1810 H   0  0  0  0  0  0  0  0  0  0  0  0
  -16.3350  -30.0090   54.6440 N   0  0  0  0  0  0  0  0  0  0  0  0
  -15.2260  -30.4980   55.5280 C   0  0  0  0  0  0  0  0  0  0  0  0
  -14.9450  -29.8070   56.8300 O   0  0  0  0  0  0  0  0  0  0  0  0
  -14.3990  -31.6770   55.1100 N   0  0  0  0  0  0  0  0  0  0  0  0
  -16.5210  -30.4610   53.7900 H   0  0  0  0  0  0  0  0  0  0  0  0
  -14.5840  -32.1290   54.2550 H   0  0  0  0  0  0  0  0  0  0  0  0
  -13.2900  -32.1660   55.9940 C   0  0  0  0  0  0  0  0  0  0  0  0
  -13.3120  -33.5710   56.5180 C   0  0  0  0  0  0  0  0  0  0  0  0
  -12.2030  -34.0600   57.4010 C   0  0  0  0  0  0  0  0  0  0  0  0
  -11.0720  -33.1440   57.7610 C   0  0  0  0  0  0  0  0  0  0  0  0
  -11.0490  -31.7380   57.2370 C   0  0  0  0  0  0  0  0  0  0  0  0
  -12.1580  -31.2490   56.3530 C   0  0  0  0  0  0  0  0  0  0  0  0
  -14.0910  -34.2010   56.2700 H   0  0  0  0  0  0  0  0  0  0  0  0
  -12.2190  -35.0270   57.7620 H   0  0  0  0  0  0  0  0  0  0  0  0
  -10.3090  -33.4800   58.3690 H   0  0  0  0  0  0  0  0  0  0  0  0
  -12.1420  -30.2820   55.9930 H   0  0  0  0  0  0  0  0  0  0  0  0
   -9.9170  -30.8220   57.5970 C   0  0  0  0  0  0  0  0  0  0  0  0
   -9.1870  -31.0050   58.8940 O   0  0  0  0  0  0  0  0  0  0  0  0
   -9.5160  -29.7220   56.6590 O   0  0  0  0  0  0  0  0  0  0  0  0
   -9.9720  -29.6070   55.8480 H   0  0  0  0  0  0  0  0  0  0  0  0
  -19.6460  -25.2920   56.3170 O   0  0  0  0  0  0  0  0  0  0  0  0
  -28.2390  -27.4060   55.3120 C   0  0  0  0  0  0  0  0  0  0  0  0
  -28.3300  -25.9910   55.8010 O   0  0  0  0  0  0  0  0  0  0  0  0
  -26.8980  -28.0530   55.1300 N   0  0  0  0  0  0  0  0  0  0  0  0
  -25.6470  -27.2830   55.4360 C   0  0  0  0  0  0  0  0  0  0  0  0
  -24.2430  -27.7950   55.3030 N   0  0  0  0  0  0  0  0  0  0  0  0
  -23.3090  -26.6950   55.7140 C   0  0  0  0  0  0  0  0  0  0  0  0
  -21.8120  -26.6240   55.7860 C   0  0  0  0  0  0  0  0  0  0  0  0
  -21.1430  -25.3630   56.2450 C   0  0  0  0  0  0  0  0  0  0  0  0
  -21.9690  -24.1730   56.6330 C   0  0  0  0  0  0  0  0  0  0  0  0
  -23.4660  -24.2440   56.5610 C   0  0  0  0  0  0  0  0  0  0  0  0
  -24.1360  -25.5050   56.1020 C   0  0  0  0  0  0  0  0  0  0  0  0
  -25.5810  -25.8690   55.9300 N   0  0  0  0  0  0  0  0  0  0  0  0
  -26.8390  -28.9820   54.8090 H   0  0  0  0  0  0  0  0  0  0  0  0
  -21.2440  -27.4430   55.5190 H   0  0  0  0  0  0  0  0  0  0  0  0
  -21.5080  -23.3050   56.9490 H   0  0  0  0  0  0  0  0  0  0  0  0
  -24.0350  -23.4250   56.8280 H   0  0  0  0  0  0  0  0  0  0  0  0
  -26.3510  -25.2820   56.1100 H   0  0  0  0  0  0  0  0  0  0  0  0
  -29.4900  -28.1750   55.0060 O   0  0  0  0  0  0  0  0  0  0  0  0
  -30.5250  -27.5910   54.0910 C   0  0  0  0  0  0  0  0  0  0  0  0
  -30.3710  -26.6250   53.6570 H   0  0  0  0  0  0  0  0  0  0  0  0
  -31.4170  -28.1390   53.8730 H   0  0  0  0  0  0  0  0  0  0  0  0
  -31.2630  -27.1730   53.4380 H   0  0  0  0  0  0  0  0  0  0  0  0
  1  2  1  0
  1 31  1  0
  2  7  1  0
  3  8  1  0
  3  2  2  0
  4  3  1  0
  5  4  2  0
  5  6  1  0
  6  1  2  0
  9  5  1  0
 10  6  1  0
 11  4  1  0
 11 12  1  0
 12 13  2  0
 14 12  1  0
 14 17  1  0
 15 11  1  0
 16 14  1  0
 17 22  2  0
 17 18  1  0
 18 19  2  0
 19 20  1  0
 19 24  1  0
 20 25  1  0
 21 27  1  0
 21 20  2  0
 22 21  1  0
 23 18  1  0
 26 22  1  0
 27 28  2  0
 29 27  1  0
 30 29  1  0
 32 33  2  0
 34 32  1  0
 34 35  1  0
 35 43  1  0
 36 35  2  0
 36 37  1  0
 37 38  2  0
 37 42  1  0
 38 39  1  0
 39 31  1  0
 39 40  2  0
 40 46  1  0
 41 40  1  0
 41 47  1  0
 42 41  2  0
 43 42  1  0
 43 48  1  0
 44 34  1  0
 45 38  1  0
 49 32  1  0
 50 49  1  0
 51 50  1  0
 52 50  1  0
 53 50  1  0
M  END
>  <minimizedAffinity>  (259) 
-9.72381687

$$$$

     RDKit          3D

 37 39  0  0  0  0  0  0  0  0999 V2000
  -22.7220  -25.4940   56.0810 C   0  0  0  0  0  0  0  0  0  0  0  0
  -23.8580  -26.4130   55.7430 C   0  0  0  0  0  0  0  0  0  0  0  0
  -23.5770  -27.8020   55.2510 C   0  0  0  0  0  0  0  0  0  0  0  0
  -22.1610  -28.2720   55.0980 C   0  0  0  0  0  0  0  0  0  0  0  0
  -21.0250  -27.3530   55.4370 C   0  0  0  0  0  0  0  0  0  0  0  0
  -21.3050  -25.9640   55.9280 C   0  0  0  0  0  0  0  0  0  0  0  0
  -19.9900  -25.2870   56.1830 N   0  0  0  0  0  0  0  0  0  0  0  0
  -18.8980  -26.2590   55.8480 C   0  0  0  0  0  0  0  0  0  0  0  0
  -17.4250  -26.0000   55.9550 O   0  0  0  0  0  0  0  0  0  0  0  0
  -19.5370  -27.5360   55.3870 C   0  0  0  0  0  0  0  0  0  0  0  0
  -18.8150  -28.7760   54.9520 N   0  0  0  0  0  0  0  0  0  0  0  0
  -24.8320  -26.0900   55.8480 H   0  0  0  0  0  0  0  0  0  0  0  0
  -24.3590  -28.4350   55.0180 H   0  0  0  0  0  0  0  0  0  0  0  0
  -21.9680  -29.2280   54.7600 H   0  0  0  0  0  0  0  0  0  0  0  0
  -19.8670  -24.3680   56.5110 H   0  0  0  0  0  0  0  0  0  0  0  0
  -23.0020  -24.1050   56.5730 C   0  0  0  0  0  0  0  0  0  0  0  0
  -24.0130  -23.7700   56.6820 H   0  0  0  0  0  0  0  0  0  0  0  0
  -22.1910  -23.4490   56.8150 H   0  0  0  0  0  0  0  0  0  0  0  0
  -23.2020  -23.1140   56.9240 H   0  0  0  0  0  0  0  0  0  0  0  0
  -17.3160  -28.8120   54.9550 N   0  0  0  0  0  0  0  0  0  0  0  0
  -16.8060  -28.1070   54.4930 H   0  0  0  0  0  0  0  0  0  0  0  0
  -16.5920  -29.9200   55.6620 C   0  0  0  0  0  0  0  0  0  0  0  0
  -17.3080  -31.1990   55.9800 C   0  0  0  0  0  0  0  0  0  0  0  0
  -16.5850  -32.3070   56.6870 C   0  0  0  0  0  0  0  0  0  0  0  0
  -15.1450  -32.1360   57.0750 C   0  0  0  0  0  0  0  0  0  0  0  0
  -14.4300  -30.8560   56.7560 C   0  0  0  0  0  0  0  0  0  0  0  0
  -15.1540  -29.7480   56.0490 C   0  0  0  0  0  0  0  0  0  0  0  0
  -18.2980  -31.3170   55.7130 H   0  0  0  0  0  0  0  0  0  0  0  0
  -17.0760  -33.1870   56.9070 H   0  0  0  0  0  0  0  0  0  0  0  0
  -13.4400  -30.7380   57.0230 H   0  0  0  0  0  0  0  0  0  0  0  0
  -14.6620  -28.8680   55.8300 H   0  0  0  0  0  0  0  0  0  0  0  0
  -14.4230  -33.2430   57.7820 S   0  0  1  0  0  0  0  0  0  0  0  0
  -13.6520  -32.2340   58.5780 O   0  0  0  0  0  0  0  0  0  0  0  0
  -15.1930  -34.2540   56.9840 O   0  0  0  0  0  0  0  0  0  0  0  0
  -13.7000  -34.3530   58.4880 N   0  0  0  0  0  0  0  0  0  0  0  0
  -13.0000  -34.1340   59.1970 H   0  0  0  0  0  0  0  0  0  0  0  0
  -13.9080  -35.3250   58.2580 H   0  0  0  0  0  0  0  0  0  0  0  0
  1 16  1  0
  2 12  1  0
  2  1  2  0
  3  2  1  0
  4  3  2  0
  4  5  1  0
  5  6  2  0
  6  1  1  0
  6  7  1  0
  7 15  1  0
  8  9  2  0
  8  7  1  0
 10  5  1  0
 10  8  1  0
 11 20  1  0
 11 10  2  0
 13  3  1  0
 14  4  1  0
 16 17  1  0
 16 18  1  0
 16 19  1  0
 20 22  1  0
 21 20  1  0
 22 23  2  0
 22 27  1  0
 23 24  1  0
 24 29  1  0
 24 25  2  0
 25 32  1  0
 26 30  1  0
 26 25  1  0
 27 26  2  0
 28 23  1  0
 31 27  1  0
 32 35  1  0
 32 33  2  0
 34 32  2  0
 35 36  1  0
 37 35  1  0
M  END
>  <minimizedAffinity>  (260) 
-8.39901638

$$$$

     RDKit          3D

 33 34  0  0  0  0  0  0  0  0999 V2000
  -20.1200  -26.7630   55.7230 C   0  0  0  0  0  0  0  0  0  0  0  0
  -19.0490  -25.9260   56.3580 N   0  0  0  0  0  2  0  0  0  0  0  0
  -17.7230  -26.5530   56.0410 C   0  0  0  0  0  0  0  0  0  0  0  0
  -17.9750  -27.7760   55.2120 N   0  0  0  0  0  0  0  0  0  0  0  0
  -19.4560  -27.9060   55.0150 C   0  0  0  0  0  0  0  0  0  0  0  0
  -16.6490  -28.4030   54.8950 C   0  0  0  0  0  3  0  0  0  0  0  0
  -15.5770  -27.5660   55.5300 C   0  0  0  0  0  2  0  0  0  0  0  0
  -16.2420  -26.4230   56.2380 S   0  0  0  0  0  0  0  0  0  0  0  0
  -16.4940  -29.2910   54.3190 H   0  0  0  0  0  0  0  0  0  0  0  0
  -15.6380  -28.7240   54.7580 H   0  0  0  0  0  0  0  0  0  0  0  0
  -14.5250  -27.7520   55.4850 H   0  0  0  0  0  0  0  0  0  0  0  0
  -14.9400  -26.8730   56.0370 H   0  0  0  0  0  0  0  0  0  0  0  0
  -26.0220  -25.7180   55.9750 F   0  0  0  0  0  0  0  0  0  0  0  0
  -24.5470  -25.9790   55.9120 C   0  0  0  0  0  0  0  0  0  0  0  0
  -23.5770  -24.8780   56.2200 C   0  0  0  0  0  0  0  0  0  0  0  0
  -22.1000  -25.1390   56.1570 C   0  0  0  0  0  0  0  0  0  0  0  0
  -21.5960  -26.5020   55.7860 C   0  0  0  0  0  0  0  0  0  0  0  0
  -22.5660  -27.6040   55.4780 C   0  0  0  0  0  0  0  0  0  0  0  0
  -24.0420  -27.3430   55.5420 C   0  0  0  0  0  0  0  0  0  0  0  0
  -23.9240  -23.9400   56.4750 H   0  0  0  0  0  0  0  0  0  0  0  0
  -21.4330  -24.3820   56.3680 H   0  0  0  0  0  0  0  0  0  0  0  0
  -22.2190  -28.5410   55.2230 H   0  0  0  0  0  0  0  0  0  0  0  0
  -24.7100  -28.1000   55.3300 H   0  0  0  0  0  0  0  0  0  0  0  0
  -20.1510  -28.9900   54.2450 C   0  0  0  0  0  0  0  0  0  0  0  0
  -20.3860  -30.3290   54.8800 C   0  0  0  0  0  0  0  0  0  0  0  0
  -21.0820  -31.4120   54.1100 C   0  0  0  0  0  0  0  0  0  0  0  0
  -21.5420  -31.1570   52.7050 N   0  0  0  0  0  0  0  0  0  0  0  0
  -21.3070  -29.8190   52.0700 C   0  0  0  0  0  0  0  0  0  0  0  0
  -20.6120  -28.7350   52.8400 C   0  0  0  0  0  0  0  0  0  0  0  0
  -20.0700  -30.5040   55.8460 H   0  0  0  0  0  0  0  0  0  0  0  0
  -21.2430  -32.3330   54.5470 H   0  0  0  0  0  0  0  0  0  0  0  0
  -21.6240  -29.6430   51.1040 H   0  0  0  0  0  0  0  0  0  0  0  0
  -20.4500  -27.8140   52.4030 H   0  0  0  0  0  0  0  0  0  0  0  0
  1 17  1  0
  1  2  1  0
  3  8  2  0
  3  2  1  0
  4  3  1  0
  5  4  1  0
  5  1  2  0
  6  4  1  0
  7 12  1  0
  9  6  1  0
 10  6  1  0
 11  7  1  0
 14 13  1  0
 14 15  1  0
 15 20  1  0
 16 15  2  0
 16 21  1  0
 17 16  1  0
 18 19  1  0
 18 17  2  0
 19 14  2  0
 22 18  1  0
 23 19  1  0
 24 25  1  0
 24  5  1  0
 25 30  1  0
 26 31  1  0
 26 25  2  0
 27 26  1  0
 28 27  2  0
 28 29  1  0
 29 24  2  0
 32 28  1  0
 33 29  1  0
M  END
>  <minimizedAffinity>  (261) 
-8.0306921

$$$$

     RDKit          3D

 43 38  0  0  0  0  0  0  0  0999 V2000
  -19.8060  -27.5030   55.1460 N   0  0  0  0  0  2  0  0  0  0  0  0
  -20.3060  -26.3070   55.9000 C   0  0  0  0  0  0  0  0  0  0  0  0
  -19.1290  -25.6370   56.5440 N   0  0  0  0  0  2  0  0  0  0  0  0
  -17.8990  -26.4200   56.1870 C   0  0  0  0  0  0  0  0  0  0  0  0
  -16.4530  -26.2320   56.5380 C   0  0  0  0  0  0  0  0  0  0  0  0
  -15.4250  -27.1960   56.0250 N   0  0  0  0  0  0  0  0  0  0  0  0
  -15.8440  -28.3490   55.1620 C   0  0  0  0  0  0  0  0  0  0  0  0
  -17.2900  -28.5380   54.8110 C   0  0  0  0  0  0  0  0  0  0  0  0
  -18.3180  -27.5730   55.3240 C   0  0  0  0  0  3  0  0  0  0  0  0
  -16.1650  -25.4380   57.1320 H   0  0  0  0  0  0  0  0  0  0  0  0
  -15.1360  -29.0130   54.8090 H   0  0  0  0  0  0  0  0  0  0  0  0
  -17.7080  -29.6900   53.9480 C   0  0  0  0  0  2  0  0  0  0  0  0
  -18.1720  -29.4460   52.5420 O   0  0  0  0  0  1  0  0  0  0  0  0
  -17.6630  -31.0880   54.4890 N   0  0  0  0  0 15  0  0  0  0  0  0
  -17.1990  -31.3330   55.8950 C   0  0  0  0  0  2  0  0  0  0  0  0
  -17.1540  -32.7310   56.4360 C   0  0  0  0  0  2  0  0  0  0  0  0
  -17.5730  -33.8840   55.5730 N   0  0  0  0  0  2  0  0  0  0  0  0
  -18.0360  -33.6390   54.1680 C   0  0  0  0  0  3  0  0  0  0  0  0
  -18.0810  -32.2410   53.6260 C   0  0  0  0  0  2  0  0  0  0  0  0
  -16.9010  -30.5110   56.5110 H   0  0  0  0  0  0  0  0  0  0  0  0
  -16.8690  -31.5080   56.8970 H   0  0  0  0  0  0  0  0  0  0  0  0
  -16.8230  -32.9060   57.4390 H   0  0  0  0  0  0  0  0  0  0  0  0
  -17.1220  -33.7290   56.8230 H   0  0  0  0  0  0  0  0  0  0  0  0
  -17.5420  -34.8350   55.9410 H   0  0  0  0  0  0  0  0  0  0  0  0
  -18.3350  -34.4620   53.5520 H   0  0  0  0  0  0  0  0  0  0  0  0
  -18.3670  -33.4640   53.1650 H   0  0  0  0  0  0  0  0  0  0  0  0
  -18.4120  -32.0660   52.6230 H   0  0  0  0  0  0  0  0  0  0  0  0
  -18.1140  -31.2440   53.2390 H   0  0  0  0  0  0  0  0  0  0  0  0
  -21.7350  -25.8590   55.9940 C   0  0  0  0  0  0  0  0  0  0  0  0
  -22.9450  -26.7360   55.8620 N   0  0  0  0  0  0  0  0  0  0  0  0
  -24.1620  -25.8740   56.0220 O   0  0  0  0  0  0  0  0  0  0  0  0
  -23.7050  -24.4640   56.2530 N   0  0  0  0  0  0  0  0  0  0  0  0
  -22.2050  -24.4540   56.2360 C   0  0  0  0  0  0  0  0  0  0  0  0
  -21.3290  -23.2520   56.4260 N   0  0  0  0  0  0  0  0  0  0  0  0
  -20.3490  -23.3470   56.3980 H   0  0  0  0  0  0  0  0  0  0  0  0
  -21.7320  -22.3680   56.5800 H   0  0  0  0  0  0  0  0  0  0  0  0
  -20.6450  -28.4610   54.3540 C   0  0  0  0  0  3  0  0  0  0  0  0
  -20.9070  -28.2320   53.3420 H   0  0  0  0  0  0  0  0  0  0  0  0
  -20.3080  -27.5490   53.9070 H   0  0  0  0  0  0  0  0  0  0  0  0
  -21.1170  -29.7400   54.9790 C   0  0  0  0  0  0  0  0  0  0  0  0
  -20.8540  -29.9690   55.9910 H   0  0  0  0  0  0  0  0  0  0  0  0
  -21.7150  -30.4230   54.4140 H   0  0  0  0  0  0  0  0  0  0  0  0
  -21.4530  -30.6520   55.4260 H   0  0  0  0  0  0  0  0  0  0  0  0
  1  2  2  0
  2 29  1  0
  2  3  1  0
  4  5  1  0
  4  3  1  0
  5 10  1  0
  6  5  2  0
  7  6  1  0
  8  7  2  0
  8  9  1  0
  9  4  2  0
 11  7  1  0
 12  8  1  0
 13 12  1  0
 15 20  1  0
 15 21  1  0
 16 23  1  0
 16 22  1  0
 17 24  1  0
 18 17  1  0
 25 18  1  0
 26 18  1  0
 27 19  1  0
 28 19  1  0
 29 33  1  0
 30 29  2  0
 30 31  1  0
 31 32  1  0
 33 32  2  0
 33 34  1  0
 34 36  1  0
 35 34  1  0
 37 40  1  0
 38 37  1  0
 39 37  1  0
 40 43  1  0
 40 41  1  0
 42 40  1  0
M  END
>  <minimizedAffinity>  (262) 
-8.38006115

$$$$

     RDKit          3D

 37 34  0  0  0  0  0  0  0  0999 V2000
  -18.7760  -27.1540   55.5770 C   0  0  0  0  0  0  0  0  0  0  0  0
  -18.9600  -25.8400   56.2750 N   0  0  0  0  0  0  0  0  0  0  0  0
  -20.4010  -25.4430   56.1410 C   0  0  0  0  0  0  0  0  0  0  0  0
  -21.1620  -24.2450   56.6300 C   0  0  0  0  0  0  0  0  0  0  0  0
  -22.6280  -24.1180   56.3370 N   0  0  0  0  0  0  0  0  0  0  0  0
  -23.3330  -25.1870   55.5570 C   0  0  0  0  0  0  0  0  0  0  0  0
  -22.5720  -26.3840   55.0690 C   0  0  0  0  0  0  0  0  0  0  0  0
  -21.1070  -26.5120   55.3610 C   0  0  0  0  0  0  0  0  0  0  0  0
  -20.1020  -27.5710   55.0120 N   0  0  0  0  0  0  0  0  0  0  0  0
  -20.6770  -23.5100   57.1660 H   0  0  0  0  0  0  0  0  0  0  0  0
  -24.3410  -25.0990   55.3560 H   0  0  0  0  0  0  0  0  0  0  0  0
  -23.0570  -27.1200   54.5320 H   0  0  0  0  0  0  0  0  0  0  0  0
  -20.3750  -28.8230   54.2350 C   0  0  0  0  0  2  0  0  0  0  0  0
  -20.2300  -28.8280   52.7430 C   0  0  0  0  0  2  0  0  0  0  0  0
  -20.5040  -30.0810   51.9660 C   0  0  0  0  0  2  0  0  0  0  0  0
  -20.9230  -31.3300   52.6810 C   0  0  0  0  0  2  0  0  0  0  0  0
  -21.0690  -31.3270   54.1740 C   0  0  0  0  0  2  0  0  0  0  0  0
  -20.7950  -30.0730   54.9510 C   0  0  0  0  0  2  0  0  0  0  0  0
  -20.5710  -29.7180   53.6810 H   0  0  0  0  0  0  0  0  0  0  0  0
  -19.9310  -27.9360   52.2320 H   0  0  0  0  0  0  0  0  0  0  0  0
  -20.1260  -28.8310   51.6780 H   0  0  0  0  0  0  0  0  0  0  0  0
  -20.4000  -30.0840   50.9000 H   0  0  0  0  0  0  0  0  0  0  0  0
  -20.6990  -30.9760   51.4110 H   0  0  0  0  0  0  0  0  0  0  0  0
  -21.1190  -32.2250   52.1270 H   0  0  0  0  0  0  0  0  0  0  0  0
  -21.2230  -32.2220   53.1920 H   0  0  0  0  0  0  0  0  0  0  0  0
  -21.3680  -32.2180   54.6850 H   0  0  0  0  0  0  0  0  0  0  0  0
  -21.1730  -31.3240   55.2400 H   0  0  0  0  0  0  0  0  0  0  0  0
  -20.8990  -30.0700   56.0160 H   0  0  0  0  0  0  0  0  0  0  0  0
  -20.6000  -29.1790   55.5060 H   0  0  0  0  0  0  0  0  0  0  0  0
  -15.7850  -25.9730   56.1320 N   0  0  0  0  0  0  0  0  0  0  0  0
  -16.1160  -27.3760   55.7190 C   0  0  0  0  0  0  0  0  0  0  0  0
  -15.1300  -28.4830   55.4890 N   0  0  0  0  0  0  0  0  0  0  0  0
  -15.8950  -29.7100   55.0910 O   0  0  0  0  0  0  0  0  0  0  0  0
  -17.3550  -29.3620   55.0760 N   0  0  0  0  0  0  0  0  0  0  0  0
  -17.4910  -27.9190   55.4640 C   0  0  0  0  0  0  0  0  0  0  0  0
  -16.5050  -25.3140   56.2590 H   0  0  0  0  0  0  0  0  0  0  0  0
  -14.8470  -25.7100   56.2760 H   0  0  0  0  0  0  0  0  0  0  0  0
  1  2  2  0
  3  2  1  0
  3  4  1  0
  4 10  1  0
  5  4  2  0
  6  5  1  0
  7  8  1  0
  7  6  2  0
  8  3  2  0
  9  8  1  0
  9  1  1  0
 11  6  1  0
 12  7  1  0
 13  9  1  0
 16 25  1  0
 17 26  1  0
 17 27  1  0
 18 29  1  0
 18 28  1  0
 19 13  1  0
 20 14  1  0
 21 14  1  0
 22 15  1  0
 23 15  1  0
 24 16  1  0
 30 36  1  0
 30 37  1  0
 31 30  1  0
 32 31  2  0
 33 32  1  0
 34 33  1  0
 34 35  2  0
 35  1  1  0
 35 31  1  0
M  END
>  <minimizedAffinity>  (263) 
-7.65703678

$$$$

     RDKit          3D

 39 33  0  0  0  0  0  0  0  0999 V2000
  -18.8230  -27.2670   55.9240 N   0  0  0  0  0 15  0  0  0  0  0  0
  -19.0870  -28.6390   55.3760 C   0  0  0  0  0  2  0  0  0  0  0  0
  -20.5540  -28.7470   55.0860 N   0  0  0  0  0  2  0  0  0  0  0  0
  -21.1980  -27.4430   55.4540 C   0  0  0  0  0  0  0  0  0  0  0  0
  -22.6200  -26.9700   55.3850 C   0  0  0  0  0  3  0  0  0  0  0  0
  -22.9720  -25.5830   55.8340 N   0  0  0  0  0  0  0  0  0  0  0  0
  -21.9010  -24.6680   56.3520 C   0  0  0  0  0  0  0  0  0  0  0  0
  -20.4790  -25.1410   56.4210 C   0  0  0  0  0  0  0  0  0  0  0  0
  -20.1280  -26.5280   55.9720 C   0  0  0  0  0  3  0  0  0  0  0  0
  -22.1430  -23.7130   56.6610 H   0  0  0  0  0  0  0  0  0  0  0  0
  -19.7430  -24.5110   56.7770 H   0  0  0  0  0  0  0  0  0  0  0  0
  -23.6900  -27.8850   54.8680 N   0  0  0  0  0 15  0  0  0  0  0  0
  -23.7620  -28.4640   53.4860 C   0  0  0  0  0  2  0  0  0  0  0  0
  -24.9930  -29.3180   53.4050 C   0  0  0  0  0  2  0  0  0  0  0  0
  -25.6810  -29.2670   54.7360 C   0  0  0  0  0  2  0  0  0  0  0  0
  -24.8750  -28.3810   55.6410 C   0  0  0  0  0  2  0  0  0  0  0  0
  -23.0600  -28.2970   52.6960 H   0  0  0  0  0  0  0  0  0  0  0  0
  -23.9550  -28.9510   52.5530 H   0  0  0  0  0  0  0  0  0  0  0  0
  -25.3220  -29.8670   52.5480 H   0  0  0  0  0  0  0  0  0  0  0  0
  -25.8960  -29.8830   53.5070 H   0  0  0  0  0  0  0  0  0  0  0  0
  -26.5860  -29.7740   54.9960 H   0  0  0  0  0  0  0  0  0  0  0  0
  -26.0460  -29.1300   55.7330 H   0  0  0  0  0  0  0  0  0  0  0  0
  -25.1060  -28.1450   56.6590 H   0  0  0  0  0  0  0  0  0  0  0  0
  -24.1980  -27.7320   56.1540 H   0  0  0  0  0  0  0  0  0  0  0  0
  -18.0630  -29.7120   55.1570 C   0  0  0  0  0  0  0  0  0  0  0  0
  -17.7050  -30.8000   56.1250 N   0  0  0  0  0  0  0  0  0  0  0  0
  -16.6380  -31.6470   55.4970 O   0  0  0  0  0  0  0  0  0  0  0  0
  -16.3360  -31.0820   54.1410 N   0  0  0  0  0  0  0  0  0  0  0  0
  -17.2170  -29.8870   53.9310 C   0  0  0  0  0  0  0  0  0  0  0  0
  -17.2460  -29.0170   52.7080 N   0  0  0  0  0  0  0  0  0  0  0  0
  -17.8620  -28.2510   52.6640 H   0  0  0  0  0  0  0  0  0  0  0  0
  -16.6490  -29.2140   51.9500 H   0  0  0  0  0  0  0  0  0  0  0  0
  -17.4890  -26.7290   56.3490 C   0  0  0  0  0  3  0  0  0  0  0  0
  -17.1950  -26.7780   57.3770 H   0  0  0  0  0  0  0  0  0  0  0  0
  -18.1470  -27.1620   57.0730 H   0  0  0  0  0  0  0  0  0  0  0  0
  -16.5670  -26.1220   55.3330 C   0  0  0  0  0  0  0  0  0  0  0  0
  -16.8610  -26.0730   54.3050 H   0  0  0  0  0  0  0  0  0  0  0  0
  -15.6160  -25.7380   55.6360 H   0  0  0  0  0  0  0  0  0  0  0  0
  -15.9090  -25.6890   54.6080 H   0  0  0  0  0  0  0  0  0  0  0  0
  3  2  1  0
  3  4  1  0
  4  9  1  0
  5  4  2  0
  5  6  1  0
  6  7  2  0
  7  8  1  0
  7 10  1  0
  8 11  1  0
  9  8  2  0
 14 20  1  0
 15 21  1  0
 15 22  1  0
 16 24  1  0
 16 23  1  0
 17 13  1  0
 18 13  1  0
 19 14  1  0
 25  2  1  0
 25 26  2  0
 27 26  1  0
 28 27  1  0
 29 28  2  0
 29 25  1  0
 30 29  1  0
 31 30  1  0
 32 30  1  0
 33 35  1  0
 33 34  1  0
 36 38  1  0
 36 33  1  0
 37 36  1  0
 39 36  1  0
M  END
>  <minimizedAffinity>  (264) 
-7.50754833

$$$$

     RDKit          3D

 70 67  0  0  0  0  0  0  0  0999 V2000
  -24.2030  -26.4030   55.7510 C   0  0  0  0  0  0  0  0  0  0  0  0
  -24.0400  -24.9660   56.1510 C   0  0  0  0  0  0  0  0  0  0  0  0
  -22.6710  -24.4100   56.4100 C   0  0  0  0  0  0  0  0  0  0  0  0
  -21.4650  -25.2910   56.2690 C   0  0  0  0  0  0  0  0  0  0  0  0
  -20.0960  -24.7350   56.5280 N   0  0  0  0  0  0  0  0  0  0  0  0
  -18.8900  -25.6150   56.3870 C   0  0  0  0  0  0  0  0  0  0  0  0
  -19.0520  -27.0520   55.9870 N   0  0  0  0  0  0  0  0  0  0  0  0
  -20.4210  -27.6080   55.7280 C   0  0  0  0  0  0  0  0  0  0  0  0
  -20.5840  -29.0440   55.3280 N   0  0  0  0  0  0  0  0  0  0  0  0
  -21.6280  -26.7270   55.8690 C   0  0  0  0  0  0  0  0  0  0  0  0
  -22.9960  -27.2830   55.6100 C   0  0  0  0  0  0  0  0  0  0  0  0
  -24.8700  -24.3610   56.2480 H   0  0  0  0  0  0  0  0  0  0  0  0
  -22.5590  -23.4220   56.6860 H   0  0  0  0  0  0  0  0  0  0  0  0
  -17.9480  -25.2320   56.5650 H   0  0  0  0  0  0  0  0  0  0  0  0
  -21.4820  -29.4090   55.1580 H   0  0  0  0  0  0  0  0  0  0  0  0
  -23.1080  -28.2720   55.3350 H   0  0  0  0  0  0  0  0  0  0  0  0
  -19.3780  -29.9240   55.1870 C   0  0  0  0  0  0  0  0  0  0  0  0
  -18.7120  -30.4860   56.4080 C   0  0  0  0  0  0  0  0  0  0  0  0
  -17.5050  -31.3660   56.2670 C   0  0  0  0  0  0  0  0  0  0  0  0
  -16.9650  -31.6850   54.9040 C   0  0  0  0  0  0  0  0  0  0  0  0
  -17.6310  -31.1240   53.6830 C   0  0  0  0  0  0  0  0  0  0  0  0
  -17.0910  -31.4430   52.3210 Cl  0  0  0  0  0  0  0  0  0  0  0  0
  -18.8370  -30.2440   53.8240 C   0  0  0  0  0  0  0  0  0  0  0  0
  -19.0830  -30.2660   57.3460 H   0  0  0  0  0  0  0  0  0  0  0  0
  -17.0470  -31.7520   57.1070 H   0  0  0  0  0  0  0  0  0  0  0  0
  -19.2950  -29.8570   52.9840 H   0  0  0  0  0  0  0  0  0  0  0  0
  -15.7590  -32.5650   54.7630 O   0  0  0  0  0  0  0  0  0  0  0  0
  -14.3940  -32.0210   55.0630 C   0  0  0  0  0  0  0  0  0  0  0  0
  -13.8480  -31.4970   54.3050 H   0  0  0  0  0  0  0  0  0  0  0  0
  -13.4190  -31.6320   55.2760 H   0  0  0  0  0  0  0  0  0  0  0  0
  -13.7920  -32.2110   56.4240 C   0  0  0  0  0  0  0  0  0  0  0  0
  -12.7630  -33.2790   56.6470 C   0  0  0  0  0  0  0  0  0  0  0  0
  -12.1620  -33.4690   58.0080 C   0  0  0  0  0  0  0  0  0  0  0  0
  -12.5900  -32.5900   59.1460 C   0  0  0  0  0  0  0  0  0  0  0  0
  -13.6190  -31.5220   58.9230 C   0  0  0  0  0  0  0  0  0  0  0  0
  -14.0460  -30.6440   60.0610 F   0  0  0  0  0  0  0  0  0  0  0  0
  -14.2200  -31.3320   57.5620 C   0  0  0  0  0  0  0  0  0  0  0  0
  -12.4690  -33.8840   55.8630 H   0  0  0  0  0  0  0  0  0  0  0  0
  -11.4540  -34.2040   58.1610 H   0  0  0  0  0  0  0  0  0  0  0  0
  -12.1760  -32.7210   60.0820 H   0  0  0  0  0  0  0  0  0  0  0  0
  -14.9280  -30.5970   57.4090 H   0  0  0  0  0  0  0  0  0  0  0  0
  -27.3740  -28.3920   54.7240 C   0  0  0  0  0 15  0  0  0  0  0  0
  -27.9820  -27.2370   55.4630 C   0  0  0  0  0  2  0  0  0  0  0  0
  -26.8690  -26.3520   55.9380 C   0  0  0  0  0  0  0  0  0  0  0  0
  -25.5710  -26.9590   55.4920 C   0  0  0  0  0  0  0  0  0  0  0  0
  -25.8830  -28.2200   54.7420 O   0  0  0  0  0  1  0  0  0  0  0  0
  -28.9900  -27.0810   55.6180 H   0  0  0  0  0  0  0  0  0  0  0  0
  -26.9760  -25.4790   56.4770 H   0  0  0  0  0  0  0  0  0  0  0  0
  -28.1230  -29.5200   54.0800 C   0  0  0  0  0  2  0  0  0  0  0  0
  -28.9150  -29.3130   53.3920 H   0  0  0  0  0  0  0  0  0  0  0  0
  -28.3810  -28.5080   53.8510 H   0  0  0  0  0  0  0  0  0  0  0  0
  -27.7610  -30.9410   54.4000 N   0  0  0  0  0 15  0  0  0  0  0  0
  -26.7110  -31.6470   53.5950 C   0  0  0  0  0  2  0  0  0  0  0  0
  -26.9650  -32.0910   52.6550 H   0  0  0  0  0  0  0  0  0  0  0  0
  -27.7150  -31.5870   53.2300 H   0  0  0  0  0  0  0  0  0  0  0  0
  -25.3040  -31.7310   54.1080 C   0  0  0  0  0  3  0  0  0  0  0  0
  -25.1130  -31.6700   55.1590 H   0  0  0  0  0  0  0  0  0  0  0  0
  -26.1160  -31.6100   54.7930 H   0  0  0  0  0  0  0  0  0  0  0  0
  -24.1640  -31.9010   53.1470 S   0  0  2  0  0  0  0  0  0  0  0  0
  -23.9260  -30.4200   53.1690 O   0  0  0  0  0  0  0  0  0  0  0  0
  -24.4020  -33.3820   53.1260 O   0  0  0  0  0  0  0  0  0  0  0  0
  -23.0240  -32.0700   52.1870 C   0  0  0  0  0  0  0  0  0  0  0  0
  -22.4710  -31.2160   51.8580 H   0  0  0  0  0  0  0  0  0  0  0  0
  -22.7640  -33.0450   51.8320 H   0  0  0  0  0  0  0  0  0  0  0  0
  -22.2110  -32.1910   51.5020 H   0  0  0  0  0  0  0  0  0  0  0  0
  -28.4500  -31.6540   55.5260 C   0  0  0  0  0  3  0  0  0  0  0  0
  -29.2290  -32.3560   55.3190 H   0  0  0  0  0  0  0  0  0  0  0  0
  -28.9410  -32.1620   56.3300 H   0  0  0  0  0  0  0  0  0  0  0  0
  -28.0450  -31.3800   56.9450 C   0  0  0  0  0  2  0  0  0  0  0  0
  -27.6400  -31.1080   58.3630 N   0  0  0  0  0  1  0  0  0  0  0  0
  1  2  1  0
  2 12  1  0
  2  3  2  0
  3 13  1  0
  4  3  1  0
  4  5  1  0
  6  5  2  0
  6 14  1  0
  7  6  1  0
  8 10  1  0
  8  7  2  0
  9  8  1  0
 10  4  2  0
 11  1  2  0
 11 10  1  0
 15  9  1  0
 16 11  1  0
 17  9  1  0
 17 18  1  0
 18 24  1  0
 19 18  2  0
 19 25  1  0
 20 19  1  0
 21 23  1  0
 21 20  2  0
 22 21  1  0
 23 17  2  0
 26 23  1  0
 27 20  1  0
 27 28  1  0
 28 30  1  0
 28 31  1  0
 29 28  1  0
 31 32  2  0
 31 37  1  0
 32 33  1  0
 33 39  1  0
 33 34  2  0
 34 40  1  0
 35 34  1  0
 35 36  1  0
 37 35  2  0
 38 32  1  0
 41 37  1  0
 43 47  1  0
 43 44  1  0
 44 48  1  0
 45  1  1  0
 45 44  2  0
 46 45  1  0
 50 49  1  0
 51 49  1  0
 54 53  1  0
 55 53  1  0
 56 58  1  0
 56 57  1  0
 59 60  2  0
 59 56  1  0
 61 59  2  0
 62 59  1  0
 63 62  1  0
 64 62  1  0
 65 62  1  0
 66 68  1  0
 66 69  1  0
 67 66  1  0
 69 70  1  0
M  END
>  <minimizedAffinity>  (265) 
-11.5587301

$$$$

     RDKit          3D

 46 48  0  0  1  0  0  0  0  0999 V2000
  -17.9210  -26.5200   55.3750 C   0  0  0  0  0  3  0  0  0  0  0  0
  -16.6270  -26.4140   56.1260 C   0  0  0  0  0  0  0  0  0  0  0  0
  -15.6500  -27.5520   56.1020 C   0  0  0  0  0  0  0  0  0  0  0  0
  -15.9670  -28.7970   55.3270 C   0  0  0  0  0  0  0  0  0  0  0  0
  -17.2610  -28.9030   54.5760 C   0  0  0  0  0  0  0  0  0  0  0  0
  -18.2380  -27.7650   54.6000 C   0  0  0  0  0  0  0  0  0  0  0  0
  -19.5320  -27.8710   53.8490 Cl  0  0  0  0  0  0  0  0  0  0  0  0
  -16.4090  -25.5580   56.6590 H   0  0  0  0  0  0  0  0  0  0  0  0
  -14.7600  -27.4790   56.6190 H   0  0  0  0  0  0  0  0  0  0  0  0
  -17.4800  -29.7590   54.0430 H   0  0  0  0  0  0  0  0  0  0  0  0
  -14.9910  -29.9350   55.3030 N   0  0  0  0  0  0  0  0  0  0  0  0
  -15.2160  -31.1350   56.1740 C   0  0  0  0  0  3  0  0  0  0  0  0
  -16.4180  -31.1970   57.0690 N   0  0  0  0  0  0  0  0  0  0  0  0
  -16.6430  -32.3970   57.9410 C   0  0  0  0  0  0  0  0  0  0  0  0
  -15.6670  -33.5350   57.9170 N   0  0  0  0  0  2  0  0  0  0  0  0
  -14.4640  -33.4730   57.0220 C   0  0  0  0  0  0  0  0  0  0  0  0
  -13.3380  -34.4350   56.7860 S   0  0  0  0  0  0  0  0  0  0  0  0
  -12.4160  -33.8290   55.7690 C   0  0  0  0  0  0  0  0  0  0  0  0
  -12.9730  -32.4930   55.3760 C   0  0  0  0  0  0  0  0  0  0  0  0
  -14.2390  -32.2730   56.1500 C   0  0  0  0  0  0  0  0  0  0  0  0
  -14.2020  -29.8940   54.7150 H   0  0  0  0  0  0  0  0  0  0  0  0
  -17.4700  -32.4400   58.5570 H   0  0  0  0  0  0  0  0  0  0  0  0
  -12.5590  -31.8400   54.6940 H   0  0  0  0  0  0  0  0  0  0  0  0
  -11.1580  -34.4500   55.2390 C   0  0  0  0  0  0  0  0  0  0  0  0
  -10.3200  -35.4790   55.9370 C   0  0  0  0  0  0  0  0  0  0  0  0
   -9.1620  -35.8160   55.0470 C   0  0  0  0  0  0  0  0  0  0  0  0
   -9.2830  -34.9960   53.7970 C   0  0  0  0  0  0  0  0  0  0  0  0
  -10.5170  -34.1520   53.9160 O   0  0  0  0  0  0  0  0  0  0  0  0
  -10.5080  -35.8840   56.8680 H   0  0  0  0  0  0  0  0  0  0  0  0
   -8.4120  -36.4940   55.2570 H   0  0  0  0  0  0  0  0  0  0  0  0
   -8.6330  -35.0100   52.9960 H   0  0  0  0  0  0  0  0  0  0  0  0
  -18.8980  -25.3820   55.3990 O   0  0  0  0  0 15  0  0  0  0  0  0
  -19.8410  -25.2270   56.5550 C   0  0  0  0  0  3  0  0  0  0  0  0
  -19.4620  -24.9750   57.5240 H   0  0  0  0  0  0  0  0  0  0  0  0
  -18.7900  -25.0860   56.6990 H   0  0  0  0  0  0  0  0  0  0  0  0
  -23.8500  -28.3290   55.4150 F   0  0  0  0  0  0  0  0  0  0  0  0
  -23.3180  -26.9760   55.7830 C   0  0  0  0  0  0  0  0  0  0  0  0
  -24.2600  -25.8200   55.9500 C   0  0  0  0  0  0  0  0  0  0  0  0
  -23.7280  -24.4670   56.3190 C   0  0  0  0  0  0  0  0  0  0  0  0
  -22.2550  -24.2690   56.5200 C   0  0  0  0  0  0  0  0  0  0  0  0
  -21.3140  -25.4250   56.3530 C   0  0  0  0  0  0  0  0  0  0  0  0
  -21.8450  -26.7780   55.9850 C   0  0  0  0  0  0  0  0  0  0  0  0
  -25.2740  -25.9560   55.8110 H   0  0  0  0  0  0  0  0  0  0  0  0
  -24.3760  -23.6720   56.4330 H   0  0  0  0  0  0  0  0  0  0  0  0
  -21.8900  -23.3380   56.7740 H   0  0  0  0  0  0  0  0  0  0  0  0
  -21.1970  -27.5740   55.8700 H   0  0  0  0  0  0  0  0  0  0  0  0
  1  2  1  0
  2  8  1  0
  3  2  2  0
  3  9  1  0
  4  3  1  0
  5  6  1  0
  5  4  2  0
  6  1  2  0
  7  6  1  0
 10  5  1  0
 11  4  1  0
 12 11  1  0
 12 13  1  0
 13 14  2  0
 14 22  1  0
 15 14  1  0
 16 15  1  0
 17 16  1  0
 18 17  1  0
 19 18  2  0
 19 20  1  0
 20 12  1  0
 20 16  2  0
 21 11  1  0
 23 19  1  0
 24 18  1  0
 24 25  2  0
 25 29  1  0
 26 30  1  0
 26 25  1  0
 27 28  1  0
 27 26  2  0
 28 24  1  0
 31 27  1  0
 33 35  1  0
 33 34  1  0
 36 37  1  0
 37 38  2  0
 37 42  1  0
 38 39  1  0
 39 44  1  0
 39 40  2  0
 40 45  1  0
 41 40  1  0
 41 33  1  0
 42 41  2  0
 43 38  1  0
 46 42  1  0
M  END
>  <minimizedAffinity>  (266) 
-10.3796158

$$$$

     RDKit          3D

 51 54  0  0  0  0  0  0  0  0999 V2000
  -20.3990  -26.4840   55.7400 C   0  0  0  0  0  0  0  0  0  0  0  0
  -20.1640  -27.9440   55.4940 C   0  0  0  0  0  0  0  0  0  0  0  0
  -18.6870  -28.1580   55.3480 C   0  0  0  0  0  0  0  0  0  0  0  0
  -18.0090  -26.8290   55.5030 C   0  0  0  0  0  0  0  0  0  0  0  0
  -19.0670  -25.7940   55.7460 S   0  0  0  0  0  0  0  0  0  0  0  0
  -20.8910  -28.6740   55.4360 H   0  0  0  0  0  0  0  0  0  0  0  0
  -25.9730  -27.2070   55.5430 C   0  0  0  0  0  0  0  0  0  0  0  0
  -25.5790  -25.8220   55.9610 C   0  0  0  0  0  0  0  0  0  0  0  0
  -24.1280  -25.4560   56.0670 C   0  0  0  0  0  0  0  0  0  0  0  0
  -23.4400  -24.1790   56.4510 N   0  0  0  0  0  0  0  0  0  0  0  0
  -21.9600  -24.4090   56.3750 C   0  0  0  0  0  0  0  0  0  0  0  0
  -21.7330  -25.8270   55.9450 N   0  0  0  0  0  0  0  0  0  0  0  0
  -23.0720  -26.4740   55.7540 C   0  0  0  0  0  0  0  0  0  0  0  0
  -23.4680  -27.8590   55.3350 C   0  0  0  0  0  0  0  0  0  0  0  0
  -24.9180  -28.2260   55.2300 C   0  0  0  0  0  0  0  0  0  0  0  0
  -26.3050  -25.1210   56.1770 H   0  0  0  0  0  0  0  0  0  0  0  0
  -21.2270  -23.7130   56.5840 H   0  0  0  0  0  0  0  0  0  0  0  0
  -22.7420  -28.5600   55.1200 H   0  0  0  0  0  0  0  0  0  0  0  0
  -27.4250  -27.5740   55.4370 O   0  0  0  0  0  0  0  0  0  0  0  0
  -28.2900  -27.5700   56.6630 C   0  0  0  0  0  0  0  0  0  0  0  0
  -27.8720  -27.3060   57.6120 H   0  0  0  0  0  0  0  0  0  0  0  0
  -29.3250  -27.8320   56.5870 H   0  0  0  0  0  0  0  0  0  0  0  0
  -28.9070  -27.5670   57.5370 H   0  0  0  0  0  0  0  0  0  0  0  0
  -25.3140  -29.6110   54.8110 O   0  0  0  0  0  0  0  0  0  0  0  0
  -25.7620  -29.8690   53.4040 C   0  0  0  0  0  0  0  0  0  0  0  0
  -26.0440  -30.8580   53.1050 H   0  0  0  0  0  0  0  0  0  0  0  0
  -25.8010  -29.0660   52.6970 H   0  0  0  0  0  0  0  0  0  0  0  0
  -26.0820  -30.0540   52.3990 H   0  0  0  0  0  0  0  0  0  0  0  0
  -16.5310  -26.5790   55.4300 C   0  0  0  0  0  0  0  0  0  0  0  0
  -15.5680  -27.7120   55.6250 N   0  0  0  0  0  0  0  0  0  0  0  0
  -16.0180  -25.1960   55.1600 O   0  0  0  0  0  0  0  0  0  0  0  0
  -15.9050  -28.6200   55.8030 H   0  0  0  0  0  0  0  0  0  0  0  0
  -14.5980  -27.5480   55.5770 H   0  0  0  0  0  0  0  0  0  0  0  0
  -18.0070  -29.4700   55.0910 O   0  0  0  0  0  0  0  0  0  0  0  0
  -18.3140  -30.6570   55.9560 C   0  0  0  0  0  0  0  0  0  0  0  0
  -19.1950  -30.6620   56.5640 H   0  0  0  0  0  0  0  0  0  0  0  0
  -18.5340  -31.5030   56.5730 H   0  0  0  0  0  0  0  0  0  0  0  0
  -17.3880  -31.8360   55.9690 C   0  0  0  0  0  0  0  0  0  0  0  0
  -17.6830  -32.7530   55.5040 H   0  0  0  0  0  0  0  0  0  0  0  0
  -16.7270  -32.6780   55.9780 H   0  0  0  0  0  0  0  0  0  0  0  0
  -16.0480  -31.7300   56.6340 C   0  0  0  0  0  0  0  0  0  0  0  0
  -14.8480  -31.3020   55.8410 C   0  0  0  0  0  0  0  0  0  0  0  0
  -13.5080  -31.1960   56.5060 C   0  0  0  0  0  0  0  0  0  0  0  0
  -13.3680  -31.5190   57.9650 C   0  0  0  0  0  0  0  0  0  0  0  0
  -14.5660  -31.9470   58.7580 C   0  0  0  0  0  0  0  0  0  0  0  0
  -15.9070  -32.0520   58.0930 C   0  0  0  0  0  0  0  0  0  0  0  0
  -14.9450  -31.0810   54.8380 H   0  0  0  0  0  0  0  0  0  0  0  0
  -12.6830  -30.9020   55.9610 H   0  0  0  0  0  0  0  0  0  0  0  0
  -12.4450  -31.4460   58.4220 H   0  0  0  0  0  0  0  0  0  0  0  0
  -14.4690  -32.1680   59.7610 H   0  0  0  0  0  0  0  0  0  0  0  0
  -16.7320  -32.3470   58.6390 H   0  0  0  0  0  0  0  0  0  0  0  0
  1  5  1  0
  1 12  1  0
  2  1  2  0
  3  2  1  0
  3  4  2  0
  4  5  1  0
  6  2  1  0
  7  8  1  0
  8  9  2  0
  8 16  1  0
  9 10  1  0
 11 10  2  0
 11 17  1  0
 12 11  1  0
 13 12  1  0
 13  9  1  0
 14 13  2  0
 15 14  1  0
 15  7  2  0
 18 14  1  0
 19  7  1  0
 19 20  1  0
 20 23  1  0
 20 21  1  0
 22 20  1  0
 24 15  1  0
 25 24  1  0
 26 25  1  0
 27 25  1  0
 28 25  1  0
 29  4  1  0
 29 30  1  0
 30 32  1  0
 31 29  2  0
 33 30  1  0
 34  3  1  0
 34 35  1  0
 35 38  1  0
 35 36  1  0
 35 37  1  0
 38 40  1  0
 38 41  1  0
 39 38  1  0
 41 46  1  0
 42 43  1  0
 42 41  2  0
 43 44  2  0
 44 49  1  0
 44 45  1  0
 45 50  1  0
 46 51  1  0
 46 45  2  0
 47 42  1  0
 48 43  1  0
M  END
>  <minimizedAffinity>  (267) 
-9.08121967

$$$$

     RDKit          3D

 59 63  0  0  0  0  0  0  0  0999 V2000
  -17.0710  -28.6870   55.1200 C   0  0  0  0  0  0  0  0  0  0  0  0
  -18.4370  -28.9160   55.6940 C   0  0  0  0  0  0  0  0  0  0  0  0
  -19.2870  -27.7480   56.0990 C   0  0  0  0  0  0  0  0  0  0  0  0
  -18.7690  -26.3500   55.9290 C   0  0  0  0  0  0  0  0  0  0  0  0
  -17.4020  -26.1210   55.3550 C   0  0  0  0  0  0  0  0  0  0  0  0
  -16.5530  -27.2890   54.9500 C   0  0  0  0  0  0  0  0  0  0  0  0
  -18.7930  -29.8780   55.8100 H   0  0  0  0  0  0  0  0  0  0  0  0
  -20.2270  -27.9060   56.4940 H   0  0  0  0  0  0  0  0  0  0  0  0
  -17.0460  -25.1590   55.2380 H   0  0  0  0  0  0  0  0  0  0  0  0
  -15.6130  -27.1310   54.5550 H   0  0  0  0  0  0  0  0  0  0  0  0
  -15.2860  -30.0140   57.1330 O   0  0  0  0  0  0  0  0  0  0  0  0
  -15.3300  -30.5190   55.7220 C   0  0  0  0  0  0  0  0  0  0  0  0
  -16.2220  -29.8550   54.7150 N   0  0  0  0  0  0  0  0  0  0  0  0
  -14.4800  -31.6870   55.3170 N   0  0  0  0  0  0  0  0  0  0  0  0
  -16.2500  -30.1870   53.7880 H   0  0  0  0  0  0  0  0  0  0  0  0
  -14.5080  -32.0190   54.3900 H   0  0  0  0  0  0  0  0  0  0  0  0
  -13.5880  -32.3500   56.3240 C   0  0  0  0  0  0  0  0  0  0  0  0
  -12.4150  -31.6070   56.8910 C   0  0  0  0  0  0  0  0  0  0  0  0
  -11.5230  -32.2710   57.8980 C   0  0  0  0  0  0  0  0  0  0  0  0
  -11.8040  -33.6770   58.3380 C   0  0  0  0  0  0  0  0  0  0  0  0
  -12.9770  -34.4200   57.7700 C   0  0  0  0  0  0  0  0  0  0  0  0
  -13.8690  -33.7570   56.7630 C   0  0  0  0  0  0  0  0  0  0  0  0
  -15.0420  -34.4990   56.1960 F   0  0  0  0  0  0  0  0  0  0  0  0
  -12.2220  -30.6400   56.5880 H   0  0  0  0  0  0  0  0  0  0  0  0
  -11.1900  -34.1340   59.0300 H   0  0  0  0  0  0  0  0  0  0  0  0
  -13.1700  -35.3880   58.0730 H   0  0  0  0  0  0  0  0  0  0  0  0
  -10.3500  -31.5280   58.4650 C   0  0  0  0  0  0  0  0  0  0  0  0
   -9.1770  -30.7850   59.0320 F   0  0  0  0  0  0  0  0  0  0  0  0
  -11.2480  -30.8840   59.4790 F   0  0  0  0  0  0  0  0  0  0  0  0
   -9.4520  -32.1720   57.4510 F   0  0  0  0  0  0  0  0  0  0  0  0
  -19.6180  -25.1820   56.3340 O   0  0  0  0  0  0  0  0  0  0  0  0
  -21.1130  -25.2760   56.2510 C   0  0  0  0  0  0  0  0  0  0  0  0
  -21.9600  -24.0920   56.6090 C   0  0  0  0  0  0  0  0  0  0  0  0
  -23.4550  -24.1860   56.5260 C   0  0  0  0  0  0  0  0  0  0  0  0
  -24.1020  -25.4650   56.0830 C   0  0  0  0  0  0  0  0  0  0  0  0
  -25.5400  -25.8530   55.9050 N   0  0  0  0  0  0  0  0  0  0  0  0
  -25.5820  -27.2770   55.4360 C   0  0  0  0  0  0  0  0  0  0  0  0
  -26.8180  -28.0700   55.1330 N   0  0  0  0  0  0  0  0  0  0  0  0
  -28.1700  -27.4410   55.2920 C   0  0  0  0  0  0  0  0  0  0  0  0
  -28.2860  -26.0190   55.7540 O   0  0  0  0  0  0  0  0  0  0  0  0
  -24.1690  -27.7690   55.3250 N   0  0  0  0  0  0  0  0  0  0  0  0
  -23.2550  -26.6500   55.7240 C   0  0  0  0  0  0  0  0  0  0  0  0
  -21.7600  -26.5550   55.8080 C   0  0  0  0  0  0  0  0  0  0  0  0
  -21.5150  -23.2120   56.9140 H   0  0  0  0  0  0  0  0  0  0  0  0
  -24.0380  -23.3710   56.7730 H   0  0  0  0  0  0  0  0  0  0  0  0
  -26.3200  -25.2750   56.0680 H   0  0  0  0  0  0  0  0  0  0  0  0
  -26.7420  -29.0040   54.8290 H   0  0  0  0  0  0  0  0  0  0  0  0
  -21.1770  -27.3700   55.5610 H   0  0  0  0  0  0  0  0  0  0  0  0
  -29.4070  -28.2340   54.9880 C   0  0  0  0  0  0  0  0  0  0  0  0
  -29.9930  -29.1380   56.0310 C   0  0  0  0  0  0  0  0  0  0  0  0
  -31.2300  -29.9310   55.7270 C   0  0  0  0  0  0  0  0  0  0  0  0
  -31.8800  -29.8200   54.3800 C   0  0  0  0  0  0  0  0  0  0  0  0
  -31.2940  -28.9150   53.3370 C   0  0  0  0  0  0  0  0  0  0  0  0
  -30.0570  -28.1230   53.6410 C   0  0  0  0  0  0  0  0  0  0  0  0
  -29.5460  -29.2140   56.9580 H   0  0  0  0  0  0  0  0  0  0  0  0
  -31.6330  -30.5530   56.4450 H   0  0  0  0  0  0  0  0  0  0  0  0
  -32.7310  -30.3650   54.1710 H   0  0  0  0  0  0  0  0  0  0  0  0
  -31.7410  -28.8390   52.4100 H   0  0  0  0  0  0  0  0  0  0  0  0
  -29.6540  -27.5010   52.9230 H   0  0  0  0  0  0  0  0  0  0  0  0
  1  2  1  0
  2  7  1  0
  2  3  2  0
  3  8  1  0
  4  3  1  0
  4 31  1  0
  5  4  2  0
  6  1  2  0
  6  5  1  0
  9  5  1  0
 10  6  1  0
 12 11  2  0
 13  1  1  0
 13 12  1  0
 14 12  1  0
 14 17  1  0
 15 13  1  0
 16 14  1  0
 17 22  2  0
 17 18  1  0
 18 19  2  0
 19 20  1  0
 19 27  1  0
 20 25  1  0
 21 26  1  0
 21 20  2  0
 22 21  1  0
 23 22  1  0
 24 18  1  0
 27 28  1  0
 27 29  1  0
 30 27  1  0
 32 31  1  0
 32 33  1  0
 33 44  1  0
 34 33  2  0
 34 45  1  0
 35 34  1  0
 36 46  1  0
 36 35  1  0
 37 36  1  0
 38 39  1  0
 38 37  1  0
 39 40  2  0
 41 37  2  0
 41 42  1  0
 42 43  1  0
 42 35  2  0
 43 32  2  0
 47 38  1  0
 48 43  1  0
 49 39  1  0
 49 50  1  0
 50 55  1  0
 51 50  2  0
 51 56  1  0
 52 51  1  0
 53 54  1  0
 53 52  2  0
 54 49  2  0
 57 52  1  0
 58 53  1  0
 59 54  1  0
M  END
>  <minimizedAffinity>  (268) 
-10.3038254

$$$$

     RDKit          3D

 50 51  0  0  0  0  0  0  0  0999 V2000
  -20.3680  -26.4250   55.8820 C   0  0  0  0  0  0  0  0  0  0  0  0
  -20.1070  -27.9020   55.8620 C   0  0  0  0  0  0  0  0  0  0  0  0
  -18.6310  -28.1100   55.6940 C   0  0  0  0  0  3  0  0  0  0  0  0
  -17.9800  -26.7600   55.6100 C   0  0  0  0  0  0  0  0  0  0  0  0
  -19.0540  -25.7190   55.7260 S   0  0  0  0  0  0  0  0  0  0  0  0
  -20.8180  -28.6450   55.9490 H   0  0  0  0  0  0  0  0  0  0  0  0
  -24.8650  -28.1950   55.2780 C   0  0  0  0  0  0  0  0  0  0  0  0
  -25.9320  -27.1740   55.5360 C   0  0  0  0  0  0  0  0  0  0  0  0
  -25.5540  -25.7780   55.9350 C   0  0  0  0  0  0  0  0  0  0  0  0
  -24.1080  -25.4040   56.0750 C   0  0  0  0  0  0  0  0  0  0  0  0
  -23.4360  -24.1170   56.4500 N   0  0  0  0  0  0  0  0  0  0  0  0
  -21.9530  -24.3420   56.4240 C   0  0  0  0  0  0  0  0  0  0  0  0
  -21.7090  -25.7690   56.0320 N   0  0  0  0  0  0  0  0  0  0  0  0
  -23.0410  -26.4250   55.8160 C   0  0  0  0  0  0  0  0  0  0  0  0
  -23.4190  -27.8210   55.4180 C   0  0  0  0  0  0  0  0  0  0  0  0
  -26.9270  -27.4310   55.4400 H   0  0  0  0  0  0  0  0  0  0  0  0
  -26.2890  -25.0750   56.1120 H   0  0  0  0  0  0  0  0  0  0  0  0
  -21.2290  -23.6390   56.6380 H   0  0  0  0  0  0  0  0  0  0  0  0
  -22.6840  -28.5240   55.2400 H   0  0  0  0  0  0  0  0  0  0  0  0
  -25.2430  -29.5910   54.8790 O   0  0  0  0  0  0  0  0  0  0  0  0
  -24.6910  -30.1870   53.6190 C   0  0  0  0  0  0  0  0  0  0  0  0
  -24.0270  -29.6160   53.0030 H   0  0  0  0  0  0  0  0  0  0  0  0
  -24.9610  -31.1830   53.3340 H   0  0  0  0  0  0  0  0  0  0  0  0
  -24.2960  -30.6120   52.7190 H   0  0  0  0  0  0  0  0  0  0  0  0
  -16.5130  -26.4990   55.4390 C   0  0  0  0  0  0  0  0  0  0  0  0
  -15.5310  -27.6250   55.5740 N   0  0  0  0  0  0  0  0  0  0  0  0
  -16.0270  -25.1130   55.1350 O   0  0  0  0  0  0  0  0  0  0  0  0
  -15.8490  -28.5350   55.7740 H   0  0  0  0  0  0  0  0  0  0  0  0
  -14.5670  -27.4540   55.4620 H   0  0  0  0  0  0  0  0  0  0  0  0
  -17.9290  -29.4330   55.6220 O   0  0  0  0  0 15  0  0  0  0  0  0
  -17.9500  -30.2240   54.3490 C   0  0  0  0  0  3  0  0  0  0  0  0
  -17.4980  -29.2550   54.3690 H   0  0  0  0  0  0  0  0  0  0  0  0
  -18.5830  -31.5840   54.3210 C   0  0  0  0  0  0  0  0  0  0  0  0
  -17.8070  -32.7830   54.7810 C   0  0  0  0  0  0  0  0  0  0  0  0
  -18.4400  -34.1430   54.7530 C   0  0  0  0  0  0  0  0  0  0  0  0
  -19.8490  -34.3030   54.2660 C   0  0  0  0  0  0  0  0  0  0  0  0
  -20.6260  -33.1050   53.8070 C   0  0  0  0  0  0  0  0  0  0  0  0
  -19.9930  -31.7450   53.8340 C   0  0  0  0  0  0  0  0  0  0  0  0
  -16.8370  -32.6720   55.1160 H   0  0  0  0  0  0  0  0  0  0  0  0
  -17.9060  -34.9660   55.0690 H   0  0  0  0  0  0  0  0  0  0  0  0
  -20.2850  -35.2390   54.2470 H   0  0  0  0  0  0  0  0  0  0  0  0
  -21.5960  -33.2160   53.4720 H   0  0  0  0  0  0  0  0  0  0  0  0
  -20.7690  -30.5470   53.3750 C   0  0  0  0  0  0  0  0  0  0  0  0
  -21.5460  -29.3480   52.9160 F   0  0  0  0  0  0  0  0  0  0  0  0
  -20.1850  -30.6950   52.0020 F   0  0  0  0  0  0  0  0  0  0  0  0
  -21.3530  -30.3990   54.7480 F   0  0  0  0  0  0  0  0  0  0  0  0
  -17.3370  -29.6570   53.1030 C   0  0  0  0  0  0  0  0  0  0  0  0
  -16.8850  -28.6880   53.1220 H   0  0  0  0  0  0  0  0  0  0  0  0
  -17.3520  -30.2230   52.1940 H   0  0  0  0  0  0  0  0  0  0  0  0
  -16.9000  -29.2530   52.2130 H   0  0  0  0  0  0  0  0  0  0  0  0
  1 13  1  0
  2  1  2  0
  2  6  1  0
  3  2  1  0
  4  3  2  0
  4  5  1  0
  5  1  1  0
  7 15  2  0
  7  8  1  0
  8  9  2  0
  9 10  1  0
  9 17  1  0
 10 11  1  0
 12 11  2  0
 12 18  1  0
 13 12  1  0
 14 13  1  0
 14 10  2  0
 15 14  1  0
 16  8  1  0
 19 15  1  0
 20  7  1  0
 21 20  1  0
 22 21  1  0
 23 21  1  0
 24 21  1  0
 25 26  1  0
 25  4  1  0
 26 28  1  0
 27 25  2  0
 29 26  1  0
 31 32  1  0
 33 31  1  0
 33 34  1  0
 34 39  1  0
 35 34  2  0
 35 40  1  0
 36 35  1  0
 37 38  1  0
 37 36  2  0
 38 33  2  0
 41 36  1  0
 42 37  1  0
 43 38  1  0
 43 46  1  0
 44 43  1  0
 45 43  1  0
 47 48  1  0
 47 31  1  0
 49 47  1  0
 50 47  1  0
M  END
>  <minimizedAffinity>  (269) 
-9.34209061

$$$$

     RDKit          3D

 34 37  0  0  0  0  0  0  0  0999 V2000
  -24.8740  -31.5900   52.7030 N   0  0  0  0  0  0  0  0  0  0  0  0
  -23.8550  -30.6520   53.2780 C   0  0  0  0  0  0  0  0  0  0  0  0
  -24.1370  -29.3080   53.8820 N   0  0  0  0  0  0  0  0  0  0  0  0
  -22.8310  -28.7180   54.3280 C   0  0  0  0  0  0  0  0  0  0  0  0
  -21.7440  -29.6970   54.0000 C   0  0  0  0  0  0  0  0  0  0  0  0
  -22.3770  -30.8920   53.3510 S   0  0  0  0  0  0  0  0  0  0  0  0
  -24.5910  -32.4540   52.3270 H   0  0  0  0  0  0  0  0  0  0  0  0
  -25.8260  -31.3410   52.7000 H   0  0  0  0  0  0  0  0  0  0  0  0
  -20.2800  -29.5140   54.2730 C   0  0  0  0  0  0  0  0  0  0  0  0
  -19.5380  -28.3720   53.6460 C   0  0  0  0  0  0  0  0  0  0  0  0
  -18.0740  -28.1880   53.9190 C   0  0  0  0  0  0  0  0  0  0  0  0
  -17.3530  -29.1470   54.8190 C   0  0  0  0  0  0  0  0  0  0  0  0
  -15.8900  -28.9630   55.0930 N   0  0  0  0  0  0  0  0  0  0  0  0
  -15.1690  -29.9220   55.9930 C   0  0  0  0  0  0  0  0  0  0  0  0
  -15.9120  -31.0640   56.6210 C   0  0  0  0  0  0  0  0  0  0  0  0
  -17.3750  -31.2470   56.3480 C   0  0  0  0  0  0  0  0  0  0  0  0
  -18.0960  -30.2890   55.4470 C   0  0  0  0  0  0  0  0  0  0  0  0
  -19.5600  -30.4720   55.1740 N   0  0  0  0  0  0  0  0  0  0  0  0
  -20.0340  -27.7120   53.0260 H   0  0  0  0  0  0  0  0  0  0  0  0
  -17.5630  -27.4030   53.4860 H   0  0  0  0  0  0  0  0  0  0  0  0
  -14.1620  -29.7960   56.1810 H   0  0  0  0  0  0  0  0  0  0  0  0
  -15.4160  -31.7230   57.2410 H   0  0  0  0  0  0  0  0  0  0  0  0
  -17.8860  -32.0330   56.7800 H   0  0  0  0  0  0  0  0  0  0  0  0
  -22.6460  -27.3830   54.9870 C   0  0  0  0  0  0  0  0  0  0  0  0
  -23.5920  -26.2590   54.6830 C   0  0  0  0  0  0  0  0  0  0  0  0
  -23.4080  -24.9240   55.3410 C   0  0  0  0  0  0  0  0  0  0  0  0
  -22.2770  -24.7130   56.3050 C   0  0  0  0  0  0  0  0  0  0  0  0
  -22.0920  -23.3780   56.9630 F   0  0  0  0  0  0  0  0  0  0  0  0
  -21.3310  -25.8370   56.6090 C   0  0  0  0  0  0  0  0  0  0  0  0
  -21.5160  -27.1710   55.9500 C   0  0  0  0  0  0  0  0  0  0  0  0
  -24.3700  -26.4040   54.0200 H   0  0  0  0  0  0  0  0  0  0  0  0
  -24.0580  -24.1510   55.1320 H   0  0  0  0  0  0  0  0  0  0  0  0
  -20.5530  -25.6910   57.2710 H   0  0  0  0  0  0  0  0  0  0  0  0
  -20.8650  -27.9450   56.1590 H   0  0  0  0  0  0  0  0  0  0  0  0
  1  2  1  0
  2  6  1  0
  2  3  2  0
  3  4  1  0
  4 24  1  0
  5  9  1  0
  5  4  2  0
  6  5  1  0
  7  1  1  0
  8  1  1  0
  9 18  1  0
 10 11  1  0
 10  9  2  0
 11 12  2  0
 12 13  1  0
 12 17  1  0
 13 14  2  0
 14 21  1  0
 14 15  1  0
 15 22  1  0
 16 15  2  0
 16 23  1  0
 17 16  1  0
 18 17  2  0
 19 10  1  0
 20 11  1  0
 24 30  1  0
 25 24  2  0
 25 26  1  0
 26 27  2  0
 27 29  1  0
 27 28  1  0
 29 33  1  0
 30 34  1  0
 30 29  2  0
 31 25  1  0
 32 26  1  0
M  END
>  <minimizedAffinity>  (270) 
-8.03254223

$$$$

     RDKit          3D

 43 46  0  0  1  0  0  0  0  0999 V2000
  -15.4380  -29.2540   55.3800 N   0  0  0  0  0  0  0  0  0  0  0  0
  -16.9180  -29.1950   55.6130 C   0  0  0  0  0  3  0  0  0  0  0  0
  -17.6840  -30.4530   55.8990 N   0  0  0  0  0  0  0  0  0  0  0  0
  -19.1640  -30.3930   56.1320 C   0  0  0  0  0  0  0  0  0  0  0  0
  -19.8790  -29.0760   56.0790 N   0  0  0  0  0  2  0  0  0  0  0  0
  -19.1140  -27.8180   55.7930 C   0  0  0  0  0  0  0  0  0  0  0  0
  -17.6340  -27.8770   55.5600 C   0  0  0  0  0  0  0  0  0  0  0  0
  -17.1480  -26.4810   55.3020 C   0  0  0  0  0  0  0  0  0  0  0  0
  -18.3290  -25.5590   55.3750 N   0  0  0  0  0  0  0  0  0  0  0  0
  -19.5440  -26.3860   55.6790 N   0  0  0  0  0  0  0  0  0  0  0  0
  -14.9350  -28.4290   55.1920 H   0  0  0  0  0  0  0  0  0  0  0  0
  -19.6910  -31.2590   56.3290 H   0  0  0  0  0  0  0  0  0  0  0  0
  -16.1740  -26.2050   55.1080 H   0  0  0  0  0  0  0  0  0  0  0  0
  -20.9440  -25.8690   55.8400 C   0  0  0  0  0  0  0  0  0  0  0  0
  -22.1010  -26.6670   55.3170 C   0  0  0  0  0  0  0  0  0  0  0  0
  -23.5010  -26.1500   55.4780 C   0  0  0  0  0  0  0  0  0  0  0  0
  -23.7410  -24.8370   56.1620 C   0  0  0  0  0  0  0  0  0  0  0  0
  -22.5830  -24.0400   56.6840 C   0  0  0  0  0  0  0  0  0  0  0  0
  -21.1840  -24.5560   56.5230 C   0  0  0  0  0  0  0  0  0  0  0  0
  -21.9360  -27.5700   54.8470 H   0  0  0  0  0  0  0  0  0  0  0  0
  -24.2970  -26.6990   55.1190 H   0  0  0  0  0  0  0  0  0  0  0  0
  -24.7040  -24.4830   56.2730 H   0  0  0  0  0  0  0  0  0  0  0  0
  -22.7490  -23.1360   57.1550 H   0  0  0  0  0  0  0  0  0  0  0  0
  -20.3880  -24.0080   56.8830 H   0  0  0  0  0  0  0  0  0  0  0  0
  -14.2650  -31.1240   56.7500 C   0  0  0  0  0  0  0  0  0  0  0  0
  -14.7230  -30.5720   55.4330 N   0  0  0  0  0  0  0  0  0  0  0  0
  -14.4430  -30.5980   57.6200 H   0  0  0  0  0  0  0  0  0  0  0  0
  -11.9800  -34.1960   55.7040 C   0  0  0  0  0  0  0  0  0  0  0  0
  -12.6950  -32.8780   55.6510 C   0  0  0  0  0  0  0  0  0  0  0  0
  -13.5500  -32.4420   56.8030 C   0  0  0  0  0  0  0  0  0  0  0  0
  -13.6900  -33.3230   58.0090 C   0  0  0  0  0  0  0  0  0  0  0  0
  -12.9740  -34.6410   58.0620 C   0  0  0  0  0  0  0  0  0  0  0  0
  -12.1200  -35.0770   56.9090 C   0  0  0  0  0  0  0  0  0  0  0  0
  -12.5990  -32.2720   54.8210 H   0  0  0  0  0  0  0  0  0  0  0  0
  -14.2780  -33.0230   58.8020 H   0  0  0  0  0  0  0  0  0  0  0  0
  -13.0710  -35.2470   58.8920 H   0  0  0  0  0  0  0  0  0  0  0  0
  -11.4040  -36.3940   56.9620 O   0  0  0  0  0  0  0  0  0  0  0  0
  -10.8700  -36.6670   56.2420 H   0  0  0  0  0  0  0  0  0  0  0  0
  -11.1250  -34.6320   54.5510 O   0  0  0  0  0  0  0  0  0  0  0  0
  -11.7220  -35.4430   53.4390 C   0  0  0  0  0  0  0  0  0  0  0  0
  -12.7570  -35.7110   53.4690 H   0  0  0  0  0  0  0  0  0  0  0  0
  -11.1120  -35.7550   52.6170 H   0  0  0  0  0  0  0  0  0  0  0  0
  -12.1480  -36.0220   52.6460 H   0  0  0  0  0  0  0  0  0  0  0  0
  1 26  1  0
  2  1  1  0
  2  3  1  0
  3  4  2  0
  4 12  1  0
  5  4  1  0
  6  5  1  0
  7  2  1  0
  7  6  2  0
  8  9  2  0
  8  7  1  0
  9 10  1  0
 10  6  1  0
 10 14  1  0
 11  1  1  0
 13  8  1  0
 14 19  1  0
 15 16  1  0
 15 14  2  0
 16 17  2  0
 17 22  1  0
 17 18  1  0
 18 23  1  0
 19 18  2  0
 19 24  1  0
 20 15  1  0
 21 16  1  0
 25 30  1  0
 25 27  1  0
 26 25  2  0
 28 33  1  0
 29 28  2  0
 29 30  1  0
 30 31  2  0
 31 32  1  0
 31 35  1  0
 32 36  1  0
 33 37  1  0
 33 32  2  0
 34 29  1  0
 38 37  1  0
 39 28  1  0
 40 41  1  0
 40 39  1  0
 42 40  1  0
 43 40  1  0
M  END
>  <minimizedAffinity>  (271) 
-8.08794212

$$$$

     RDKit          3D

 48 51  0  0  0  0  0  0  0  0999 V2000
  -20.7570  -27.5030   55.4850 C   0  0  0  0  0  0  0  0  0  0  0  0
  -19.8550  -27.1960   54.3270 C   0  0  0  0  0  0  0  0  0  0  0  0
  -18.6460  -28.0470   54.0720 C   0  0  0  0  0  0  0  0  0  0  0  0
  -18.3390  -29.2040   54.9760 C   0  0  0  0  0  0  0  0  0  0  0  0
  -19.2410  -29.5100   56.1350 C   0  0  0  0  0  0  0  0  0  0  0  0
  -20.4500  -28.6590   56.3900 C   0  0  0  0  0  0  0  0  0  0  0  0
  -20.0660  -26.4000   53.7050 H   0  0  0  0  0  0  0  0  0  0  0  0
  -18.0250  -27.8360   53.2750 H   0  0  0  0  0  0  0  0  0  0  0  0
  -19.0300  -30.3060   56.7570 H   0  0  0  0  0  0  0  0  0  0  0  0
  -21.0700  -28.8700   57.1870 H   0  0  0  0  0  0  0  0  0  0  0  0
  -24.5460  -26.3470   55.7250 C   0  0  0  0  0  0  0  0  0  0  0  0
  -24.3840  -24.9510   56.2490 C   0  0  0  0  0  0  0  0  0  0  0  0
  -23.0130  -24.4060   56.5190 C   0  0  0  0  0  0  0  0  0  0  0  0
  -21.8040  -25.2560   56.2650 C   0  0  0  0  0  0  0  0  0  0  0  0
  -21.9660  -26.6520   55.7400 C   0  0  0  0  0  0  0  0  0  0  0  0
  -23.3370  -27.1970   55.4700 C   0  0  0  0  0  0  0  0  0  0  0  0
  -25.2160  -24.3660   56.4240 H   0  0  0  0  0  0  0  0  0  0  0  0
  -22.9010  -23.4450   56.8800 H   0  0  0  0  0  0  0  0  0  0  0  0
  -23.4480  -28.1580   55.1090 H   0  0  0  0  0  0  0  0  0  0  0  0
  -27.7230  -28.3610   54.7680 C   0  0  0  0  0  0  0  0  0  0  0  0
  -28.3310  -27.1010   55.3100 N   0  0  0  0  0  0  0  0  0  0  0  0
  -27.2150  -26.1930   55.7340 N   0  0  0  0  0  0  0  0  0  0  0  0
  -25.9170  -26.8920   55.4540 C   0  0  0  0  0  0  0  0  0  0  0  0
  -26.2310  -28.2310   54.8580 O   0  0  0  0  0  0  0  0  0  0  0  0
  -28.4750  -29.5430   54.2310 C   0  0  0  0  0  0  0  0  0  0  0  0
  -27.9410  -30.3960   53.8670 H   0  0  0  0  0  0  0  0  0  0  0  0
  -29.5440  -29.5330   54.2120 H   0  0  0  0  0  0  0  0  0  0  0  0
  -29.0110  -30.3860   53.8480 H   0  0  0  0  0  0  0  0  0  0  0  0
  -20.4330  -24.7110   56.5350 C   0  0  0  0  0  0  0  0  0  0  0  0
  -20.3170  -23.7150   56.9090 H   0  0  0  0  0  0  0  0  0  0  0  0
  -19.5700  -25.3180   56.3530 H   0  0  0  0  0  0  0  0  0  0  0  0
  -19.4550  -24.3220   56.7270 H   0  0  0  0  0  0  0  0  0  0  0  0
  -17.1300  -30.0540   54.7220 C   0  0  0  0  0  0  0  0  0  0  0  0
  -16.6830  -30.3220   53.3150 O   0  0  0  0  0  0  0  0  0  0  0  0
  -16.3670  -30.6380   55.8740 N   0  0  0  0  0  0  0  0  0  0  0  0
  -16.6600  -30.4630   56.7980 H   0  0  0  0  0  0  0  0  0  0  0  0
  -15.1580  -31.4880   55.6200 C   0  0  0  0  0  0  0  0  0  0  0  0
  -15.3220  -32.9020   55.1460 C   0  0  0  0  0  0  0  0  0  0  0  0
  -14.1130  -33.7530   54.8920 C   0  0  0  0  0  0  0  0  0  0  0  0
  -12.7400  -33.1900   55.1110 C   0  0  0  0  0  0  0  0  0  0  0  0
  -12.5760  -31.7760   55.5840 C   0  0  0  0  0  0  0  0  0  0  0  0
  -13.7850  -30.9250   55.8390 C   0  0  0  0  0  0  0  0  0  0  0  0
  -16.2670  -33.2900   54.9960 H   0  0  0  0  0  0  0  0  0  0  0  0
  -14.2260  -34.7260   54.5660 H   0  0  0  0  0  0  0  0  0  0  0  0
  -11.9080  -33.7750   54.9360 H   0  0  0  0  0  0  0  0  0  0  0  0
  -13.6720  -29.9520   56.1640 H   0  0  0  0  0  0  0  0  0  0  0  0
  -11.2030  -31.2130   55.8030 C   0  0  0  0  0  2  0  0  0  0  0  0
   -9.8300  -30.6490   56.0220 N   0  0  0  0  0  1  0  0  0  0  0  0
  1 15  1  0
  1  6  1  0
  2  1  2  0
  3  2  1  0
  3  4  2  0
  4  5  1  0
  5  6  2  0
  5  9  1  0
  6 10  1  0
  7  2  1  0
  8  3  1  0
 11 12  1  0
 12 17  1  0
 12 13  2  0
 13 18  1  0
 14 13  1  0
 14 29  1  0
 15 14  2  0
 16 11  2  0
 16 15  1  0
 19 16  1  0
 20 24  1  0
 20 21  2  0
 21 22  1  0
 23 11  1  0
 23 22  2  0
 24 23  1  0
 25 20  1  0
 26 25  1  0
 27 25  1  0
 28 25  1  0
 29 32  1  0
 29 30  1  0
 31 29  1  0
 33  4  1  0
 33 35  1  0
 34 33  2  0
 35 36  1  0
 37 42  1  0
 37 35  1  0
 38 37  2  0
 39 40  2  0
 39 38  1  0
 40 41  1  0
 41 47  1  0
 41 42  2  0
 42 46  1  0
 43 38  1  0
 44 39  1  0
 45 40  1  0
 47 48  1  0
M  END
>  <minimizedAffinity>  (272) 
-9.32689381

$$$$

     RDKit          3D

 40 41  0  0  0  0  0  0  0  0999 V2000
  -16.9440  -30.9780   54.5950 C   0  0  0  0  0  0  0  0  0  0  0  0
  -17.6210  -29.7200   54.1390 C   0  0  0  0  0  0  0  0  0  0  0  0
  -18.2220  -29.9800   52.7890 C   0  0  0  0  0  0  0  0  0  0  0  0
  -18.9930  -28.9940   51.9630 O   0  0  0  0  0  0  0  0  0  0  0  0
  -17.9150  -31.3990   52.4110 N   0  0  0  0  0  0  0  0  0  0  0  0
  -17.1250  -32.0150   53.5270 C   0  0  0  0  0  0  0  0  0  0  0  0
  -16.6080  -33.4230   53.5670 O   0  0  0  0  0  0  0  0  0  0  0  0
  -18.1850  -31.8460   51.5770 H   0  0  0  0  0  0  0  0  0  0  0  0
  -17.6870  -28.4290   54.8990 N   0  0  0  0  0  0  0  0  0  0  0  0
  -16.5150  -27.6040   55.3410 C   0  0  0  0  0  3  0  0  0  0  0  0
  -17.0400  -26.4010   56.0660 C   0  0  0  0  0  2  0  0  0  0  0  0
  -18.5380  -26.4810   56.0730 C   0  0  0  0  0  3  0  0  0  0  0  0
  -19.5890  -25.5760   56.6420 C   0  0  0  0  0  0  0  0  0  0  0  0
  -21.0400  -25.9230   56.4910 C   0  0  0  0  0  0  0  0  0  0  0  0
  -21.4400  -27.1760   55.7700 C   0  0  0  0  0  0  0  0  0  0  0  0
  -20.3890  -28.0820   55.2000 C   0  0  0  0  0  0  0  0  0  0  0  0
  -18.9380  -27.7350   55.3520 C   0  0  0  0  0  0  0  0  0  0  0  0
  -15.4840  -27.8340   55.1690 H   0  0  0  0  0  0  0  0  0  0  0  0
  -15.7920  -26.9120   55.7210 H   0  0  0  0  0  0  0  0  0  0  0  0
  -16.4500  -25.6220   56.5020 H   0  0  0  0  0  0  0  0  0  0  0  0
  -17.5670  -25.6060   56.5510 H   0  0  0  0  0  0  0  0  0  0  0  0
  -19.3140  -24.7140   57.1380 H   0  0  0  0  0  0  0  0  0  0  0  0
  -21.7640  -25.3000   56.8830 H   0  0  0  0  0  0  0  0  0  0  0  0
  -22.4390  -27.4150   55.6660 H   0  0  0  0  0  0  0  0  0  0  0  0
  -20.6640  -28.9440   54.7040 H   0  0  0  0  0  0  0  0  0  0  0  0
  -14.7510  -31.5420   58.4830 C   0  0  0  0  0  0  0  0  0  0  0  0
  -14.1040  -30.7860   57.3600 C   0  0  0  0  0  0  0  0  0  0  0  0
  -14.8350  -30.5980   56.0640 C   0  0  0  0  0  0  0  0  0  0  0  0
  -16.2120  -31.1660   55.8920 C   0  0  0  0  0  0  0  0  0  0  0  0
  -16.8590  -31.9220   57.0140 C   0  0  0  0  0  0  0  0  0  0  0  0
  -16.1280  -32.1100   58.3100 C   0  0  0  0  0  0  0  0  0  0  0  0
  -13.1560  -30.3950   57.4790 H   0  0  0  0  0  0  0  0  0  0  0  0
  -14.3900  -30.0780   55.2920 H   0  0  0  0  0  0  0  0  0  0  0  0
  -17.8060  -32.3120   56.8940 H   0  0  0  0  0  0  0  0  0  0  0  0
  -16.5720  -32.6290   59.0830 H   0  0  0  0  0  0  0  0  0  0  0  0
  -14.0200  -31.7290   59.7800 O   0  0  0  0  0  0  0  0  0  0  0  0
  -12.5310  -31.5560   59.8330 C   0  0  0  0  0  0  0  0  0  0  0  0
  -11.9890  -31.2980   58.9470 H   0  0  0  0  0  0  0  0  0  0  0  0
  -12.0090  -31.6900   60.7570 H   0  0  0  0  0  0  0  0  0  0  0  0
  -11.4680  -31.4320   59.8710 H   0  0  0  0  0  0  0  0  0  0  0  0
  1 29  1  0
  2  1  2  0
  2  9  1  0
  3  2  1  0
  4  3  2  0
  5  3  1  0
  5  6  1  0
  6  7  2  0
  6  1  1  0
  8  5  1  0
  9 10  1  0
  9 17  1  0
 10 19  1  0
 11 20  1  0
 11 21  1  0
 12 13  1  0
 13 22  1  0
 14 13  2  0
 14 23  1  0
 15 14  1  0
 16 17  1  0
 16 15  2  0
 17 12  2  0
 18 10  1  0
 24 15  1  0
 25 16  1  0
 26 36  1  0
 27 32  1  0
 27 26  2  0
 28 27  1  0
 29 28  2  0
 29 30  1  0
 30 31  2  0
 31 26  1  0
 31 35  1  0
 33 28  1  0
 34 30  1  0
 36 37  1  0
 37 40  1  0
 37 39  1  0
 38 37  1  0
M  END
>  <minimizedAffinity>  (273) 
-8.07737827

$$$$

     RDKit          3D

 46 49  0  0  0  0  0  0  0  0999 V2000
  -22.2330  -28.7400   54.2690 C   0  0  0  0  0  0  0  0  0  0  0  0
  -23.6230  -29.3030   54.2600 C   0  0  0  0  0  0  0  0  0  0  0  0
  -24.7650  -28.4920   54.7970 C   0  0  0  0  0  0  0  0  0  0  0  0
  -26.1550  -29.0560   54.7880 C   0  0  0  0  0  0  0  0  0  0  0  0
  -27.2960  -28.2450   55.3260 C   0  0  0  0  0  0  0  0  0  0  0  0
  -27.0480  -26.8710   55.8730 N   0  0  0  0  0  0  0  0  0  0  0  0
  -25.6580  -26.3070   55.8820 C   0  0  0  0  0  0  0  0  0  0  0  0
  -24.5160  -27.1180   55.3440 C   0  0  0  0  0  0  0  0  0  0  0  0
  -23.1260  -26.5540   55.3530 C   0  0  0  0  0  0  0  0  0  0  0  0
  -21.9850  -27.3650   54.8160 C   0  0  0  0  0  0  0  0  0  0  0  0
  -23.7940  -30.2490   53.8830 H   0  0  0  0  0  0  0  0  0  0  0  0
  -26.3260  -30.0020   54.4120 H   0  0  0  0  0  0  0  0  0  0  0  0
  -28.2530  -28.6330   55.3200 H   0  0  0  0  0  0  0  0  0  0  0  0
  -25.4870  -25.3610   56.2580 H   0  0  0  0  0  0  0  0  0  0  0  0
  -22.9550  -25.6090   55.7300 H   0  0  0  0  0  0  0  0  0  0  0  0
  -19.6080  -31.6820   53.8180 C   0  0  0  0  0  0  0  0  0  0  0  0
  -18.8090  -31.1730   52.6550 C   0  0  0  0  0  0  0  0  0  0  0  0
  -19.1510  -29.8530   52.0310 C   0  0  0  0  0  0  0  0  0  0  0  0
  -20.2920  -29.0420   52.5680 C   0  0  0  0  0  0  0  0  0  0  0  0
  -21.0920  -29.5510   53.7310 C   0  0  0  0  0  0  0  0  0  0  0  0
  -20.7500  -30.8710   54.3560 C   0  0  0  0  0  0  0  0  0  0  0  0
  -18.0230  -31.7310   52.2850 H   0  0  0  0  0  0  0  0  0  0  0  0
  -18.6000  -29.5020   51.2310 H   0  0  0  0  0  0  0  0  0  0  0  0
  -20.5270  -28.1330   52.1390 H   0  0  0  0  0  0  0  0  0  0  0  0
  -21.3000  -31.2210   55.1560 H   0  0  0  0  0  0  0  0  0  0  0  0
  -19.2660  -33.0020   54.4430 S   0  0  2  0  0  0  0  0  0  0  0  0
  -20.6610  -33.4870   54.1810 O   0  0  0  0  0  0  0  0  0  0  0  0
  -17.8710  -32.5170   54.7050 O   0  0  0  0  0  0  0  0  0  0  0  0
  -18.9240  -34.3220   55.0670 N   0  0  0  0  0  0  0  0  0  0  0  0
  -19.6300  -35.0570   55.1250 H   0  0  0  0  0  0  0  0  0  0  0  0
  -17.9870  -34.4850   55.4340 H   0  0  0  0  0  0  0  0  0  0  0  0
  -20.5950  -26.8020   54.8250 O   0  0  0  0  0  0  0  0  0  0  0  0
  -19.7290  -26.9600   56.0390 C   0  0  0  0  0  0  0  0  0  0  0  0
  -20.1330  -26.7750   57.0120 H   0  0  0  0  0  0  0  0  0  0  0  0
  -19.1110  -27.0740   56.9060 H   0  0  0  0  0  0  0  0  0  0  0  0
  -18.2970  -27.3800   55.8900 C   0  0  0  0  0  0  0  0  0  0  0  0
  -17.1960  -26.3880   56.1260 C   0  0  0  0  0  0  0  0  0  0  0  0
  -15.7640  -26.8070   55.9770 C   0  0  0  0  0  0  0  0  0  0  0  0
  -15.4320  -28.2180   55.5910 C   0  0  0  0  0  0  0  0  0  0  0  0
  -16.5320  -29.2100   55.3550 C   0  0  0  0  0  0  0  0  0  0  0  0
  -17.9640  -28.7910   55.5040 C   0  0  0  0  0  0  0  0  0  0  0  0
  -17.4250  -25.4170   56.3920 H   0  0  0  0  0  0  0  0  0  0  0  0
  -15.0070  -26.1250   56.1400 H   0  0  0  0  0  0  0  0  0  0  0  0
  -14.4460  -28.5070   55.4890 H   0  0  0  0  0  0  0  0  0  0  0  0
  -16.3030  -30.1810   55.0890 H   0  0  0  0  0  0  0  0  0  0  0  0
  -18.7210  -29.4730   55.3420 H   0  0  0  0  0  0  0  0  0  0  0  0
  1 10  1  0
  2  1  2  0
  2  3  1  0
  3  8  1  0
  4  3  2  0
  4  5  1  0
  5  6  2  0
  6  7  1  0
  7 14  1  0
  8  9  1  0
  8  7  2  0
  9 15  1  0
 10 32  1  0
 10  9  2  0
 11  2  1  0
 12  4  1  0
 13  5  1  0
 16 21  1  0
 16 26  1  0
 17 16  2  0
 18 19  2  0
 18 17  1  0
 19 20  1  0
 20  1  1  0
 20 21  2  0
 21 25  1  0
 22 17  1  0
 23 18  1  0
 24 19  1  0
 26 28  2  0
 26 29  1  0
 27 26  2  0
 29 30  1  0
 29 31  1  0
 32 33  1  0
 33 35  1  0
 33 34  1  0
 36 33  1  0
 36 37  1  0
 37 42  1  0
 38 37  2  0
 38 43  1  0
 39 38  1  0
 40 41  1  0
 40 39  2  0
 41 36  2  0
 44 39  1  0
 45 40  1  0
 46 41  1  0
M  END
>  <minimizedAffinity>  (274) 
-8.81355095

$$$$

     RDKit          3D

 56 60  0  0  0  0  0  0  0  0999 V2000
  -22.7940  -28.5590   54.5240 C   0  0  0  0  0  0  0  0  0  0  0  0
  -23.3120  -27.2700   55.0890 C   0  0  0  0  0  0  0  0  0  0  0  0
  -24.8100  -27.3180   55.0560 N   0  0  0  0  0  0  0  0  0  0  0  0
  -25.2190  -28.6370   54.4700 C   0  0  0  0  0  0  0  0  0  0  0  0
  -23.9730  -29.4050   54.1410 N   0  0  0  0  0  0  0  0  0  0  0  0
  -16.3130  -30.7980   55.0060 C   0  0  0  0  0  0  0  0  0  0  0  0
  -17.0480  -31.1480   56.2660 C   0  0  0  0  0  0  0  0  0  0  0  0
  -18.4920  -30.7700   56.4210 C   0  0  0  0  0  0  0  0  0  0  0  0
  -19.1990  -30.0430   55.3170 C   0  0  0  0  0  0  0  0  0  0  0  0
  -20.6430  -29.6650   55.4720 C   0  0  0  0  0  0  0  0  0  0  0  0
  -21.3510  -28.9370   54.3680 C   0  0  0  0  0  0  0  0  0  0  0  0
  -20.6150  -28.5870   53.1090 C   0  0  0  0  0  0  0  0  0  0  0  0
  -19.1720  -28.9650   52.9530 C   0  0  0  0  0  0  0  0  0  0  0  0
  -18.4640  -29.6930   54.0570 C   0  0  0  0  0  0  0  0  0  0  0  0
  -17.0210  -30.0710   53.9020 C   0  0  0  0  0  0  0  0  0  0  0  0
  -16.5610  -31.6490   57.0260 H   0  0  0  0  0  0  0  0  0  0  0  0
  -18.9980  -31.0110   57.2880 H   0  0  0  0  0  0  0  0  0  0  0  0
  -21.1490  -29.9060   56.3390 H   0  0  0  0  0  0  0  0  0  0  0  0
  -21.1020  -28.0860   52.3490 H   0  0  0  0  0  0  0  0  0  0  0  0
  -18.6660  -28.7240   52.0860 H   0  0  0  0  0  0  0  0  0  0  0  0
  -16.5150  -29.8300   53.0350 H   0  0  0  0  0  0  0  0  0  0  0  0
  -14.8700  -31.1760   54.8510 O   0  0  0  0  0  0  0  0  0  0  0  0
  -13.8990  -30.9030   55.9620 C   0  0  0  0  0  0  0  0  0  0  0  0
  -14.2360  -30.4390   56.8650 H   0  0  0  0  0  0  0  0  0  0  0  0
  -12.8700  -31.1730   55.8510 H   0  0  0  0  0  0  0  0  0  0  0  0
  -13.2070  -30.7090   56.7540 H   0  0  0  0  0  0  0  0  0  0  0  0
  -22.4770  -26.1320   55.5990 C   0  0  0  0  0  0  0  0  0  0  0  0
  -23.1080  -24.7950   55.8520 C   0  0  0  0  0  0  0  0  0  0  0  0
  -22.2730  -23.6580   56.3610 C   0  0  0  0  0  0  0  0  0  0  0  0
  -20.8090  -23.8570   56.6170 N   0  0  0  0  0  0  0  0  0  0  0  0
  -20.1780  -25.1950   56.3640 C   0  0  0  0  0  0  0  0  0  0  0  0
  -21.0130  -26.3320   55.8540 C   0  0  0  0  0  0  0  0  0  0  0  0
  -24.1150  -24.6580   55.6760 H   0  0  0  0  0  0  0  0  0  0  0  0
  -22.7070  -22.7370   56.5360 H   0  0  0  0  0  0  0  0  0  0  0  0
  -19.1710  -25.3320   56.5400 H   0  0  0  0  0  0  0  0  0  0  0  0
  -20.5790  -27.2520   55.6800 H   0  0  0  0  0  0  0  0  0  0  0  0
  -26.6270  -29.1070   54.2510 C   0  0  0  0  0  0  0  0  0  0  0  0
  -27.5330  -29.3340   55.4250 C   0  0  0  0  0  0  0  0  0  0  0  0
  -28.9400  -29.8040   55.2060 C   0  0  0  0  0  0  0  0  0  0  0  0
  -29.4420  -30.0460   53.8130 C   0  0  0  0  0  0  0  0  0  0  0  0
  -28.5360  -29.8190   52.6390 C   0  0  0  0  0  0  0  0  0  0  0  0
  -27.1290  -29.3500   52.8590 C   0  0  0  0  0  0  0  0  0  0  0  0
  -27.1870  -29.1670   56.3830 H   0  0  0  0  0  0  0  0  0  0  0  0
  -29.5640  -29.9600   56.0140 H   0  0  0  0  0  0  0  0  0  0  0  0
  -28.8820  -29.9860   51.6820 H   0  0  0  0  0  0  0  0  0  0  0  0
  -26.5050  -29.1930   52.0510 H   0  0  0  0  0  0  0  0  0  0  0  0
  -30.8500  -30.5160   53.5950 S   0  0  0  0  0  0  0  0  0  0  0  0
  -31.5550  -31.2940   54.6660 O   0  0  0  0  0  0  0  0  0  0  0  0
  -31.5530  -30.2080   52.3070 C   0  0  0  0  0  0  0  0  0  0  0  0
  -31.0500  -29.6520   51.5430 H   0  0  0  0  0  0  0  0  0  0  0  0
  -32.5570  -30.5430   52.1520 H   0  0  0  0  0  0  0  0  0  0  0  0
  -32.0550  -29.9870   51.3870 H   0  0  0  0  0  0  0  0  0  0  0  0
  -23.9150  -30.7750   53.5360 C   0  0  0  0  0  0  0  0  0  0  0  0
  -22.9690  -31.2350   53.3400 H   0  0  0  0  0  0  0  0  0  0  0  0
  -24.8200  -31.2940   53.2990 H   0  0  0  0  0  0  0  0  0  0  0  0
  -23.8750  -31.7540   53.1040 H   0  0  0  0  0  0  0  0  0  0  0  0
  1  2  2  0
  2 27  1  0
  3  2  1  0
  4  3  2  0
  5  4  1  0
  5  1  1  0
  6  7  1  0
  7  8  2  0
  7 16  1  0
  8 17  1  0
  9 10  1  0
  9  8  1  0
 10 18  1  0
 11  1  1  0
 11 10  2  0
 12 11  1  0
 13 12  2  0
 13 14  1  0
 14  9  2  0
 15 14  1  0
 15  6  2  0
 19 12  1  0
 20 13  1  0
 21 15  1  0
 22  6  1  0
 22 23  1  0
 23 26  1  0
 23 24  1  0
 25 23  1  0
 27 28  2  0
 27 32  1  0
 28 29  1  0
 29 34  1  0
 29 30  2  0
 31 35  1  0
 31 30  1  0
 32 31  2  0
 33 28  1  0
 36 32  1  0
 37  4  1  0
 37 38  1  0
 38 43  1  0
 39 38  2  0
 39 44  1  0
 40 39  1  0
 41 42  1  0
 41 40  2  0
 42 37  2  0
 45 41  1  0
 46 42  1  0
 47 40  1  0
 47 48  2  0
 49 47  1  0
 50 49  1  0
 51 49  1  0
 52 49  1  0
 53  5  1  0
 54 53  1  0
 55 53  1  0
 56 53  1  0
M  END
>  <minimizedAffinity>  (275) 
-7.88587523

$$$$

     RDKit          3D

 33 35  0  0  0  0  0  0  0  0999 V2000
  -18.3810  -26.1490   56.6090 O   0  0  0  0  0  0  0  0  0  0  0  0
  -19.8410  -25.8920   56.3830 C   0  0  0  0  0  0  0  0  0  0  0  0
  -20.5110  -24.5490   56.3830 N   0  0  0  0  0  0  0  0  0  0  0  0
  -21.9720  -24.7600   56.1170 C   0  0  0  0  0  0  0  0  0  0  0  0
  -23.0160  -23.6880   56.0300 O   0  0  0  0  0  0  0  0  0  0  0  0
  -22.2050  -26.2330   55.9530 C   0  0  0  0  0  0  0  0  0  0  0  0
  -20.8890  -26.9320   56.1180 C   0  0  0  0  0  0  0  0  0  0  0  0
  -20.0680  -23.6830   56.5310 H   0  0  0  0  0  0  0  0  0  0  0  0
  -23.5240  -26.8910   55.6740 C   0  0  0  0  0  0  0  0  0  0  0  0
  -23.5650  -28.2970   55.1530 C   0  0  0  0  0  0  0  0  0  0  0  0
  -24.8840  -28.9550   54.8730 C   0  0  0  0  0  0  0  0  0  0  0  0
  -26.1620  -28.2070   55.1150 C   0  0  0  0  0  0  0  0  0  0  0  0
  -26.1200  -26.8010   55.6360 C   0  0  0  0  0  0  0  0  0  0  0  0
  -27.3980  -26.0530   55.8780 Cl  0  0  0  0  0  0  0  0  0  0  0  0
  -24.8020  -26.1430   55.9160 C   0  0  0  0  0  0  0  0  0  0  0  0
  -22.6860  -28.8120   54.9860 H   0  0  0  0  0  0  0  0  0  0  0  0
  -24.9130  -29.9220   54.5150 H   0  0  0  0  0  0  0  0  0  0  0  0
  -27.0690  -28.6600   54.9230 H   0  0  0  0  0  0  0  0  0  0  0  0
  -24.7730  -25.1760   56.2740 H   0  0  0  0  0  0  0  0  0  0  0  0
  -20.6590  -28.4120   56.0320 N   0  0  0  0  0  0  0  0  0  0  0  0
  -21.1620  -29.0230   56.6170 H   0  0  0  0  0  0  0  0  0  0  0  0
  -19.6640  -28.9620   55.0530 C   0  0  0  0  0  0  0  0  0  0  0  0
  -19.8640  -28.7520   53.5810 C   0  0  0  0  0  0  0  0  0  0  0  0
  -18.8700  -29.3010   52.6020 C   0  0  0  0  0  0  0  0  0  0  0  0
  -17.6740  -30.0610   53.0960 C   0  0  0  0  0  0  0  0  0  0  0  0
  -17.4740  -30.2710   54.5670 C   0  0  0  0  0  0  0  0  0  0  0  0
  -16.2780  -31.0310   55.0610 Cl  0  0  0  0  0  0  0  0  0  0  0  0
  -18.4680  -29.7220   55.5460 C   0  0  0  0  0  0  0  0  0  0  0  0
  -20.6870  -28.2290   53.2410 H   0  0  0  0  0  0  0  0  0  0  0  0
  -19.0070  -29.1570   51.5900 H   0  0  0  0  0  0  0  0  0  0  0  0
  -18.3310  -29.8660   56.5580 H   0  0  0  0  0  0  0  0  0  0  0  0
  -16.6780  -30.6110   52.1180 O   0  0  0  0  0  0  0  0  0  0  0  0
  -16.8040  -30.4790   51.1980 H   0  0  0  0  0  0  0  0  0  0  0  0
  2  1  2  0
  3  2  1  0
  3  8  1  0
  4  3  1  0
  5  4  2  0
  6  4  1  0
  6  7  2  0
  7  2  1  0
  9 15  1  0
  9  6  1  0
 10  9  2  0
 11 12  2  0
 11 10  1  0
 12 13  1  0
 13 14  1  0
 13 15  2  0
 15 19  1  0
 16 10  1  0
 17 11  1  0
 18 12  1  0
 20  7  1  0
 20 21  1  0
 22 28  1  0
 22 20  1  0
 23 22  2  0
 24 25  2  0
 24 23  1  0
 25 26  1  0
 26 27  1  0
 26 28  2  0
 28 31  1  0
 29 23  1  0
 30 24  1  0
 32 25  1  0
 33 32  1  0
M  END
>  <minimizedAffinity>  (276) 
-8.46008968

$$$$

     RDKit          3D

 51 55  0  0  0  0  0  0  0  0999 V2000
  -22.0060  -28.4590   54.4660 C   0  0  0  0  0  0  0  0  0  0  0  0
  -23.0880  -27.4270   54.5860 N   0  0  0  0  0  0  0  0  0  0  0  0
  -22.5080  -26.2280   55.2760 N   0  0  0  0  0  0  0  0  0  0  0  0
  -23.1060  -24.9080   55.6650 N   0  0  0  0  0  0  0  0  0  0  0  0
  -22.2640  -23.8790   56.3600 C   0  0  0  0  0  0  0  0  0  0  0  0
  -20.8240  -24.1700   56.6660 C   0  0  0  0  0  0  0  0  0  0  0  0
  -20.2270  -25.4900   56.2760 C   0  0  0  0  0  0  0  0  0  0  0  0
  -21.0690  -26.5180   55.5820 C   0  0  0  0  0  0  0  0  0  0  0  0
  -20.7580  -27.8980   55.0810 C   0  0  0  0  0  0  0  0  0  0  0  0
  -22.6750  -22.9710   56.6280 H   0  0  0  0  0  0  0  0  0  0  0  0
  -20.2450  -23.4620   57.1440 H   0  0  0  0  0  0  0  0  0  0  0  0
  -19.2370  -25.6900   56.4870 H   0  0  0  0  0  0  0  0  0  0  0  0
  -22.4290  -32.5270   52.5890 C   0  0  0  0  0  0  0  0  0  0  0  0
  -21.1090  -31.8170   52.5500 C   0  0  0  0  0  0  0  0  0  0  0  0
  -20.9670  -30.4610   53.1760 C   0  0  0  0  0  0  0  0  0  0  0  0
  -22.1470  -29.8150   53.8400 C   0  0  0  0  0  0  0  0  0  0  0  0
  -23.4670  -30.5250   53.8790 C   0  0  0  0  0  0  0  0  0  0  0  0
  -23.6090  -31.8810   53.2540 C   0  0  0  0  0  0  0  0  0  0  0  0
  -20.2970  -32.2610   52.0920 H   0  0  0  0  0  0  0  0  0  0  0  0
  -20.0590  -29.9720   53.1490 H   0  0  0  0  0  0  0  0  0  0  0  0
  -24.2790  -30.0810   54.3370 H   0  0  0  0  0  0  0  0  0  0  0  0
  -24.5170  -32.3700   53.2810 H   0  0  0  0  0  0  0  0  0  0  0  0
  -22.5700  -33.8830   51.9630 O   0  0  0  0  0  0  0  0  0  0  0  0
  -21.4490  -34.8740   52.0600 C   0  0  0  0  0  0  0  0  0  0  0  0
  -20.5470  -34.6140   52.5750 H   0  0  0  0  0  0  0  0  0  0  0  0
  -21.5490  -35.8410   51.6130 H   0  0  0  0  0  0  0  0  0  0  0  0
  -20.6480  -35.5810   52.1290 H   0  0  0  0  0  0  0  0  0  0  0  0
  -19.4330  -28.5930   55.1780 C   0  0  0  0  0  0  0  0  0  0  0  0
  -18.2830  -28.1400   54.3290 C   0  0  0  0  0  0  0  0  0  0  0  0
  -16.9580  -28.8350   54.4260 C   0  0  0  0  0  0  0  0  0  0  0  0
  -16.7820  -29.9850   55.3740 N   0  0  0  0  0  0  0  0  0  0  0  0
  -17.9310  -30.4390   56.2240 C   0  0  0  0  0  0  0  0  0  0  0  0
  -17.7570  -31.5880   57.1710 N   0  0  0  0  0  0  0  0  0  0  0  0
  -19.2570  -29.7430   56.1260 N   0  0  0  0  0  0  0  0  0  0  0  0
  -18.4040  -27.3490   53.6770 H   0  0  0  0  0  0  0  0  0  0  0  0
  -16.1670  -28.5230   53.8410 H   0  0  0  0  0  0  0  0  0  0  0  0
  -18.5100  -31.8860   57.7290 H   0  0  0  0  0  0  0  0  0  0  0  0
  -16.4310  -32.2840   57.2690 C   0  0  0  0  0  0  0  0  0  0  0  0
  -16.1350  -33.4610   56.3870 C   0  0  0  0  0  0  0  0  0  0  0  0
  -14.8100  -34.1560   56.4850 C   0  0  0  0  0  0  0  0  0  0  0  0
  -13.7810  -33.6760   57.4650 C   0  0  0  0  0  0  0  0  0  0  0  0
  -14.0770  -32.5000   58.3460 C   0  0  0  0  0  0  0  0  0  0  0  0
  -15.4020  -31.8040   58.2490 C   0  0  0  0  0  0  0  0  0  0  0  0
  -16.8430  -33.7910   55.7120 H   0  0  0  0  0  0  0  0  0  0  0  0
  -14.6060  -34.9660   55.8770 H   0  0  0  0  0  0  0  0  0  0  0  0
  -12.8680  -34.1550   57.5320 H   0  0  0  0  0  0  0  0  0  0  0  0
  -15.6060  -30.9950   58.8560 H   0  0  0  0  0  0  0  0  0  0  0  0
  -13.0480  -32.0190   59.3270 C   0  0  0  0  0  0  0  0  0  0  0  0
  -12.0200  -31.5370   60.3070 F   0  0  0  0  0  0  0  0  0  0  0  0
  -13.9770  -30.9250   59.7640 F   0  0  0  0  0  0  0  0  0  0  0  0
  -12.1190  -33.1120   58.8910 F   0  0  0  0  0  0  0  0  0  0  0  0
  1  2  2  0
  1  9  1  0
  2  3  1  0
  3  8  1  0
  3  4  1  0
  4  5  2  0
  5 10  1  0
  5  6  1  0
  6 11  1  0
  7 12  1  0
  7  6  2  0
  8  7  1  0
  9 28  1  0
  9  8  2  0
 13 18  1  0
 14 13  2  0
 14 15  1  0
 15 16  2  0
 16 17  1  0
 16  1  1  0
 17 21  1  0
 18 22  1  0
 18 17  2  0
 19 14  1  0
 20 15  1  0
 23 24  1  0
 23 13  1  0
 24 27  1  0
 24 25  1  0
 26 24  1  0
 28 34  2  0
 29 30  2  0
 29 28  1  0
 30 31  1  0
 31 32  2  0
 32 33  1  0
 33 38  1  0
 33 37  1  0
 34 32  1  0
 35 29  1  0
 36 30  1  0
 38 43  1  0
 39 40  1  0
 39 38  2  0
 40 41  2  0
 41 46  1  0
 41 42  1  0
 42 48  1  0
 43 42  2  0
 43 47  1  0
 44 39  1  0
 45 40  1  0
 48 50  1  0
 48 49  1  0
 51 48  1  0
M  END
>  <minimizedAffinity>  (277) 
-8.38545799

$$$$

     RDKit          3D

 50 50  0  0  1  0  0  0  0  0999 V2000
  -24.1000  -26.4300   55.7460 C   0  0  0  0  0  0  0  0  0  0  0  0
  -24.0690  -25.0900   56.4200 C   0  0  0  0  0  0  0  0  0  0  0  0
  -22.7600  -24.3950   56.6470 C   0  0  0  0  0  0  0  0  0  0  0  0
  -21.4810  -25.0390   56.2000 C   0  0  0  0  0  0  0  0  0  0  0  0
  -21.5110  -26.3790   55.5260 C   0  0  0  0  0  0  0  0  0  0  0  0
  -22.8210  -27.0740   55.2990 C   0  0  0  0  0  0  0  0  0  0  0  0
  -20.0990  -26.7640   55.1980 C   0  0  0  0  0  3  0  0  0  0  0  0
  -19.6670  -28.0290   54.5180 C   0  0  0  0  0  0  0  0  0  0  0  0
  -19.1960  -25.6630   55.6680 C   0  0  0  0  0  0  0  0  0  0  0  0
  -17.7020  -25.6340   55.5410 O   0  0  0  0  0  0  0  0  0  0  0  0
  -20.0500  -24.5970   56.2880 N   0  0  0  0  0  0  0  0  0  0  0  0
  -24.9490  -24.6470   56.7270 H   0  0  0  0  0  0  0  0  0  0  0  0
  -22.7390  -23.4730   57.1110 H   0  0  0  0  0  0  0  0  0  0  0  0
  -22.8420  -27.9960   54.8360 H   0  0  0  0  0  0  0  0  0  0  0  0
  -20.3710  -28.7280   54.2320 H   0  0  0  0  0  0  0  0  0  0  0  0
  -19.7280  -23.7540   56.6830 H   0  0  0  0  0  0  0  0  0  0  0  0
  -25.4090  -27.1260   55.5190 C   0  0  0  0  0  0  0  0  0  0  0  0
  -26.6860  -26.3390   55.5170 O   0  0  0  0  0  1  0  0  0  0  0  0
  -25.4420  -28.6080   55.2940 O   0  0  0  0  0  0  0  0  0  0  0  0
  -25.4530  -29.1550   53.8970 C   0  0  0  0  0  2  0  0  0  0  0  0
  -26.1960  -28.8260   53.2000 H   0  0  0  0  0  0  0  0  0  0  0  0
  -26.1880  -28.4370   54.1960 H   0  0  0  0  0  0  0  0  0  0  0  0
  -24.4230  -30.1610   53.4770 C   0  0  0  0  0  3  0  0  0  0  0  0
  -25.3610  -30.4890   53.8730 H   0  0  0  0  0  0  0  0  0  0  0  0
  -23.1080  -29.7010   52.9210 C   0  0  0  0  0  0  0  0  0  0  0  0
  -22.3730  -30.4190   52.6210 H   0  0  0  0  0  0  0  0  0  0  0  0
  -22.9040  -28.6550   52.8240 H   0  0  0  0  0  0  0  0  0  0  0  0
  -22.1700  -29.3730   52.5240 H   0  0  0  0  0  0  0  0  0  0  0  0
  -24.7080  -31.6270   53.6130 C   0  0  0  0  0  0  0  0  0  0  0  0
  -25.6460  -31.9550   54.0090 H   0  0  0  0  0  0  0  0  0  0  0  0
  -23.9730  -32.3460   53.3130 H   0  0  0  0  0  0  0  0  0  0  0  0
  -24.9110  -32.6740   53.7100 H   0  0  0  0  0  0  0  0  0  0  0  0
  -18.2110  -28.2790   54.2540 N   0  0  0  0  0  4  0  0  0  0  0  0
  -17.7490  -27.7840   53.5390 H   0  0  0  0  0  0  0  0  0  0  0  0
  -17.4610  -29.2820   55.0780 C   0  0  0  0  0  0  0  0  0  0  0  0
  -16.0090  -29.0630   55.3880 C   0  0  0  0  0  0  0  0  0  0  0  0
  -15.2580  -30.0670   56.2130 C   0  0  0  0  0  0  0  0  0  0  0  0
  -15.9600  -31.2890   56.7280 C   0  0  0  0  0  0  0  0  0  0  0  0
  -17.4100  -31.5080   56.4180 C   0  0  0  0  0  0  0  0  0  0  0  0
  -18.1610  -30.5040   55.5930 C   0  0  0  0  0  0  0  0  0  0  0  0
  -15.5270  -28.2220   55.0340 H   0  0  0  0  0  0  0  0  0  0  0  0
  -14.2610  -29.9160   56.4260 H   0  0  0  0  0  0  0  0  0  0  0  0
  -17.8930  -32.3480   56.7720 H   0  0  0  0  0  0  0  0  0  0  0  0
  -19.1600  -30.6550   55.3800 H   0  0  0  0  0  0  0  0  0  0  0  0
  -15.2090  -32.2920   57.5530 S   0  0  1  0  0  0  0  0  0  0  0  0
  -13.9440  -31.5120   57.3510 O   0  0  0  0  0  0  0  0  0  0  0  0
  -16.4740  -33.0720   57.7540 O   0  0  0  0  0  0  0  0  0  0  0  0
  -14.4590  -33.2960   58.3770 N   0  0  0  0  0  0  0  0  0  0  0  0
  -13.4590  -33.1770   58.5390 H   0  0  0  0  0  0  0  0  0  0  0  0
  -14.9490  -34.0960   58.7760 H   0  0  0  0  0  0  0  0  0  0  0  0
  1  2  1  0
  2  3  2  0
  2 12  1  0
  3 13  1  0
  4 11  1  0
  4  3  1  0
  5  4  2  0
  6  5  1  0
  6  1  2  0
  7  8  1  0
  7  5  1  0
  7  9  1  0
  9 11  1  0
 10  9  2  0
 11 16  1  0
 14  6  1  0
 15  8  1  0
 17  1  1  0
 18 17  1  0
 19 17  2  0
 20 22  1  0
 21 20  1  0
 23 29  1  0
 23 24  1  0
 25 23  1  0
 26 25  1  0
 27 25  1  0
 28 25  1  0
 29 32  1  0
 29 30  1  0
 31 29  1  0
 33  8  2  0
 33 35  1  0
 34 33  1  0
 35 36  2  0
 35 40  1  0
 36 37  1  0
 37 42  1  0
 37 38  2  0
 38 45  1  0
 39 38  1  0
 39 43  1  0
 40 39  2  0
 41 36  1  0
 44 40  1  0
 45 47  2  0
 45 48  1  0
 46 45  2  0
 48 49  1  0
 48 50  1  0
M  END
>  <minimizedAffinity>  (278) 
-9.59015083

$$$$

     RDKit          3D

 53 56  0  0  0  0  0  0  0  0999 V2000
  -17.8590  -28.7180   55.2200 C   0  0  0  0  0  0  0  0  0  0  0  0
  -16.3900  -28.4620   55.3850 C   0  0  0  0  0  0  0  0  0  0  0  0
  -15.9130  -27.1310   55.8870 C   0  0  0  0  0  0  0  0  0  0  0  0
  -16.9040  -26.0570   56.2240 N   0  0  0  0  0  0  0  0  0  0  0  0
  -18.3730  -26.3130   56.0590 C   0  0  0  0  0  0  0  0  0  0  0  0
  -19.3640  -25.2390   56.3960 N   0  0  0  0  0  0  0  0  0  0  0  0
  -18.8500  -27.6440   55.5570 N   0  0  0  0  0  0  0  0  0  0  0  0
  -15.7080  -29.2010   55.1540 H   0  0  0  0  0  0  0  0  0  0  0  0
  -14.9020  -26.9550   56.0010 H   0  0  0  0  0  0  0  0  0  0  0  0
  -19.0500  -24.3660   56.7250 H   0  0  0  0  0  0  0  0  0  0  0  0
  -20.8320  -25.4950   56.2300 C   0  0  0  0  0  0  0  0  0  0  0  0
  -21.8180  -24.3880   56.4630 C   0  0  0  0  0  0  0  0  0  0  0  0
  -23.2860  -24.6440   56.2980 C   0  0  0  0  0  0  0  0  0  0  0  0
  -23.7700  -26.0070   55.9000 C   0  0  0  0  0  0  0  0  0  0  0  0
  -22.7850  -27.1140   55.6680 C   0  0  0  0  0  0  0  0  0  0  0  0
  -21.3160  -26.8580   55.8330 C   0  0  0  0  0  0  0  0  0  0  0  0
  -23.2680  -28.4770   55.2710 O   0  0  0  0  0  0  0  0  0  0  0  0
  -24.7370  -28.7340   55.1060 C   0  0  0  0  0  3  0  0  0  0  0  0
  -25.7220  -27.6270   55.3380 C   0  0  0  0  0  2  0  0  0  0  0  0
  -25.2380  -26.2630   55.7350 O   0  0  0  0  0  1  0  0  0  0  0  0
  -21.4850  -23.4500   56.7360 H   0  0  0  0  0  0  0  0  0  0  0  0
  -23.9640  -23.8820   56.4570 H   0  0  0  0  0  0  0  0  0  0  0  0
  -20.6380  -27.6200   55.6740 H   0  0  0  0  0  0  0  0  0  0  0  0
  -25.0820  -29.7060   54.8230 H   0  0  0  0  0  0  0  0  0  0  0  0
  -25.7850  -28.9170   54.9880 H   0  0  0  0  0  0  0  0  0  0  0  0
  -26.7700  -27.8090   55.2200 H   0  0  0  0  0  0  0  0  0  0  0  0
  -26.4250  -26.8370   55.5040 H   0  0  0  0  0  0  0  0  0  0  0  0
  -17.7500  -31.3840   55.0660 C   0  0  0  0  0  0  0  0  0  0  0  0
  -18.5350  -32.4380   54.3440 N   0  0  0  0  0  0  0  0  0  0  0  0
  -19.6080  -31.7530   53.5500 N   0  0  0  0  0  0  0  0  0  0  0  0
  -20.6810  -32.2840   52.6460 N   0  0  0  0  0  0  0  0  0  0  0  0
  -21.6310  -31.3380   51.9740 C   0  0  0  0  0  0  0  0  0  0  0  0
  -21.5090  -29.8610   52.2050 C   0  0  0  0  0  0  0  0  0  0  0  0
  -20.4360  -29.3310   53.1090 C   0  0  0  0  0  0  0  0  0  0  0  0
  -19.4860  -30.2770   53.7810 C   0  0  0  0  0  0  0  0  0  0  0  0
  -18.3370  -30.0480   54.7190 C   0  0  0  0  0  0  0  0  0  0  0  0
  -22.3700  -31.7030   51.3510 H   0  0  0  0  0  0  0  0  0  0  0  0
  -22.1630  -29.2100   51.7430 H   0  0  0  0  0  0  0  0  0  0  0  0
  -20.3520  -28.3140   53.2690 H   0  0  0  0  0  0  0  0  0  0  0  0
  -14.0160  -31.8040   56.3430 C   0  0  0  0  0  0  0  0  0  0  0  0
  -14.2450  -32.1030   57.7950 C   0  0  0  0  0  0  0  0  0  0  0  0
  -15.6420  -32.1630   58.3380 C   0  0  0  0  0  0  0  0  0  0  0  0
  -16.8100  -31.9230   57.4280 C   0  0  0  0  0  0  0  0  0  0  0  0
  -16.5810  -31.6240   55.9760 C   0  0  0  0  0  0  0  0  0  0  0  0
  -15.1830  -31.5640   55.4340 C   0  0  0  0  0  0  0  0  0  0  0  0
  -13.4400  -32.2680   58.4210 H   0  0  0  0  0  0  0  0  0  0  0  0
  -15.7990  -32.3680   59.3360 H   0  0  0  0  0  0  0  0  0  0  0  0
  -17.7710  -31.9640   57.8010 H   0  0  0  0  0  0  0  0  0  0  0  0
  -15.0260  -31.3580   54.4350 H   0  0  0  0  0  0  0  0  0  0  0  0
  -11.2200  -31.6840   55.2590 F   0  0  0  0  0  0  0  0  0  0  0  0
  -12.6180  -31.7440   55.8010 C   0  0  0  0  0  0  0  0  0  0  0  0
  -13.0990  -32.3140   54.4990 F   0  0  0  0  0  0  0  0  0  0  0  0
  -12.1370  -31.1740   57.1030 F   0  0  0  0  0  0  0  0  0  0  0  0
  1  2  1  0
  1  7  2  0
  2  3  2  0
  3  9  1  0
  3  4  1  0
  5  4  2  0
  5  6  1  0
  6 10  1  0
  7  5  1  0
  8  2  1  0
 11  6  1  0
 11 12  1  0
 12 21  1  0
 13 22  1  0
 13 12  2  0
 14 13  1  0
 15 16  1  0
 15 14  2  0
 16 11  2  0
 17 15  1  0
 18 17  1  0
 19 27  1  0
 20 14  1  0
 23 16  1  0
 24 18  1  0
 25 18  1  0
 26 19  1  0
 28 44  1  0
 29 28  2  0
 30 35  1  0
 30 29  1  0
 31 30  1  0
 32 33  1  0
 32 31  2  0
 33 34  2  0
 34 39  1  0
 34 35  1  0
 35 36  2  0
 36 28  1  0
 36  1  1  0
 37 32  1  0
 38 33  1  0
 40 41  1  0
 41 42  2  0
 41 46  1  0
 42 47  1  0
 43 48  1  0
 43 42  1  0
 44 43  2  0
 45 44  1  0
 45 40  2  0
 49 45  1  0
 50 51  1  0
 51 40  1  0
 51 53  1  0
 52 51  1  0
M  END
>  <minimizedAffinity>  (279) 
-10.198617

$$$$

     RDKit          3D

 50 53  0  0  0  0  0  0  0  0999 V2000
  -18.9880  -26.3920   55.8810 C   0  0  0  0  0  0  0  0  0  0  0  0
  -19.4470  -27.8100   56.0470 C   0  0  0  0  0  0  0  0  0  0  0  0
  -18.5400  -28.9420   55.6640 C   0  0  0  0  0  0  0  0  0  0  0  0
  -17.1740  -28.6550   55.1140 C   0  0  0  0  0  0  0  0  0  0  0  0
  -16.7150  -27.2370   54.9480 C   0  0  0  0  0  0  0  0  0  0  0  0
  -17.6220  -26.1050   55.3310 C   0  0  0  0  0  0  0  0  0  0  0  0
  -20.3870  -28.0070   56.4250 H   0  0  0  0  0  0  0  0  0  0  0  0
  -18.8560  -29.9180   55.7780 H   0  0  0  0  0  0  0  0  0  0  0  0
  -15.7750  -27.0400   54.5700 H   0  0  0  0  0  0  0  0  0  0  0  0
  -17.3060  -25.1300   55.2170 H   0  0  0  0  0  0  0  0  0  0  0  0
  -16.2670  -29.7870   54.7310 N   0  0  0  0  0  0  0  0  0  0  0  0
  -15.1500  -30.1960   55.6460 C   0  0  0  0  0  0  0  0  0  0  0  0
  -14.9400  -29.4730   56.9430 O   0  0  0  0  0  0  0  0  0  0  0  0
  -14.2440  -31.3280   55.2620 N   0  0  0  0  0  0  0  0  0  0  0  0
  -16.4050  -30.2620   53.8800 H   0  0  0  0  0  0  0  0  0  0  0  0
  -14.3810  -31.8020   54.4110 H   0  0  0  0  0  0  0  0  0  0  0  0
  -13.1270  -31.7360   56.1770 C   0  0  0  0  0  0  0  0  0  0  0  0
  -13.3930  -32.6840   57.3080 C   0  0  0  0  0  0  0  0  0  0  0  0
  -12.2760  -33.0930   58.2230 C   0  0  0  0  0  0  0  0  0  0  0  0
  -10.8930  -32.5530   58.0050 C   0  0  0  0  0  0  0  0  0  0  0  0
  -10.6270  -31.6060   56.8730 C   0  0  0  0  0  0  0  0  0  0  0  0
   -9.2450  -31.0670   56.6560 Cl  0  0  0  0  0  0  0  0  0  0  0  0
  -11.7440  -31.1970   55.9590 C   0  0  0  0  0  0  0  0  0  0  0  0
  -14.3440  -33.0550   57.4580 H   0  0  0  0  0  0  0  0  0  0  0  0
  -12.4590  -33.7450   59.0010 H   0  0  0  0  0  0  0  0  0  0  0  0
  -10.1250  -32.8350   58.6340 H   0  0  0  0  0  0  0  0  0  0  0  0
  -11.5610  -30.5450   55.1800 H   0  0  0  0  0  0  0  0  0  0  0  0
  -19.8950  -25.2600   56.2640 O   0  0  0  0  0  0  0  0  0  0  0  0
  -26.7490  -29.8840   54.4840 C   0  0  0  0  0  0  0  0  0  0  0  0
  -25.3660  -30.4410   54.3150 O   0  0  0  0  0  0  0  0  0  0  0  0
  -26.9370  -28.4800   54.9770 N   0  0  0  0  0  0  0  0  0  0  0  0
  -25.7430  -27.6330   55.3020 C   0  0  0  0  0  0  0  0  0  0  0  0
  -25.7750  -26.2190   55.8030 N   0  0  0  0  0  0  0  0  0  0  0  0
  -24.3580  -25.7630   55.9940 C   0  0  0  0  0  0  0  0  0  0  0  0
  -23.7770  -24.4640   56.4660 C   0  0  0  0  0  0  0  0  0  0  0  0
  -22.2890  -24.2960   56.5560 C   0  0  0  0  0  0  0  0  0  0  0  0
  -21.3820  -25.4280   56.1740 C   0  0  0  0  0  0  0  0  0  0  0  0
  -21.9630  -26.7280   55.7010 C   0  0  0  0  0  0  0  0  0  0  0  0
  -23.4510  -26.8950   55.6110 C   0  0  0  0  0  0  0  0  0  0  0  0
  -24.3070  -28.0510   55.1840 N   0  0  0  0  0  0  0  0  0  0  0  0
  -27.8450  -28.1150   55.0880 H   0  0  0  0  0  0  0  0  0  0  0  0
  -24.4010  -23.6850   56.7290 H   0  0  0  0  0  0  0  0  0  0  0  0
  -21.8890  -23.4020   56.8820 H   0  0  0  0  0  0  0  0  0  0  0  0
  -21.3390  -27.5060   55.4380 H   0  0  0  0  0  0  0  0  0  0  0  0
  -23.9830  -28.9290   54.8790 H   0  0  0  0  0  0  0  0  0  0  0  0
  -27.9430  -30.7310   54.1590 O   0  0  0  0  0  0  0  0  0  0  0  0
  -29.1570  -30.1090   53.5360 C   0  0  0  0  0  0  0  0  0  0  0  0
  -29.1710  -29.0600   53.3230 H   0  0  0  0  0  0  0  0  0  0  0  0
  -30.0090  -30.7130   53.3040 H   0  0  0  0  0  0  0  0  0  0  0  0
  -30.0230  -29.6640   53.0910 H   0  0  0  0  0  0  0  0  0  0  0  0
  1  2  1  0
  1 28  1  0
  2  7  1  0
  3  8  1  0
  3  2  2  0
  4  3  1  0
  5  4  2  0
  5  6  1  0
  6  1  2  0
  9  5  1  0
 10  6  1  0
 11  4  1  0
 11 12  1  0
 12 13  2  0
 14 12  1  0
 14 17  1  0
 15 11  1  0
 16 14  1  0
 17 18  1  0
 18 24  1  0
 18 19  2  0
 19 25  1  0
 20 19  1  0
 20 26  1  0
 21 20  2  0
 22 21  1  0
 23 17  2  0
 23 21  1  0
 27 23  1  0
 29 31  1  0
 30 29  2  0
 31 41  1  0
 31 32  1  0
 32 33  2  0
 33 34  1  0
 34 35  1  0
 35 36  2  0
 35 42  1  0
 36 43  1  0
 37 28  1  0
 37 36  1  0
 38 37  2  0
 39 38  1  0
 39 34  2  0
 40 32  1  0
 40 39  1  0
 44 38  1  0
 45 40  1  0
 46 29  1  0
 47 46  1  0
 48 47  1  0
 49 47  1  0
 50 47  1  0
M  END
>  <minimizedAffinity>  (280) 
-9.2784462

$$$$

     RDKit          3D

 51 55  0  0  1  0  0  0  0  0999 V2000
  -19.4800  -29.2630   54.3090 C   0  0  0  0  0  0  0  0  0  0  0  0
  -18.6350  -29.5260   53.0980 C   0  0  0  0  0  0  0  0  0  0  0  0
  -17.4550  -30.4480   53.1920 C   0  0  0  0  0  0  0  0  0  0  0  0
  -17.1200  -31.1060   54.4970 C   0  0  0  0  0  0  0  0  0  0  0  0
  -16.0270  -32.0560   54.8910 N   0  0  0  0  0  0  0  0  0  0  0  0
  -16.1970  -32.3790   56.3450 C   0  0  0  0  0  0  0  0  0  0  0  0
  -17.3940  -31.6300   56.8510 N   0  0  0  0  0  0  0  0  0  0  0  0
  -17.9650  -30.8440   55.7080 C   0  0  0  0  0  0  0  0  0  0  0  0
  -19.1450  -29.9220   55.6150 C   0  0  0  0  0  0  0  0  0  0  0  0
  -18.8660  -29.0730   52.2000 H   0  0  0  0  0  0  0  0  0  0  0  0
  -16.8740  -30.6290   52.3580 H   0  0  0  0  0  0  0  0  0  0  0  0
  -17.7440  -31.6510   57.7710 H   0  0  0  0  0  0  0  0  0  0  0  0
  -19.7260  -29.7410   56.4480 H   0  0  0  0  0  0  0  0  0  0  0  0
  -15.3220  -33.2910   57.1530 C   0  0  0  0  0  0  0  0  0  0  0  0
  -15.4340  -34.3520   57.0690 H   0  0  0  0  0  0  0  0  0  0  0  0
  -14.6980  -33.9420   57.7290 H   0  0  0  0  0  0  0  0  0  0  0  0
  -14.2910  -32.7170   58.0790 C   0  0  0  0  0  0  0  0  0  0  0  0
  -14.6410  -31.5580   58.9640 C   0  0  0  0  0  0  0  0  0  0  0  0
  -13.6100  -30.9830   59.8900 C   0  0  0  0  0  0  0  0  0  0  0  0
  -12.2290  -31.5670   59.9300 C   0  0  0  0  0  0  0  0  0  0  0  0
  -11.8790  -32.7260   59.0440 C   0  0  0  0  0  0  0  0  0  0  0  0
  -12.9100  -33.3010   58.1180 C   0  0  0  0  0  0  0  0  0  0  0  0
  -15.5900  -31.1560   58.9370 H   0  0  0  0  0  0  0  0  0  0  0  0
  -13.8500  -30.1860   60.4990 H   0  0  0  0  0  0  0  0  0  0  0  0
  -11.5190  -31.1720   60.5670 H   0  0  0  0  0  0  0  0  0  0  0  0
  -10.9290  -33.1280   59.0710 H   0  0  0  0  0  0  0  0  0  0  0  0
  -12.6680  -34.0980   57.5090 H   0  0  0  0  0  0  0  0  0  0  0  0
  -20.6600  -28.3420   54.2160 N   0  0  0  0  0  0  0  0  0  0  0  0
  -21.4420  -28.5980   53.6770 H   0  0  0  0  0  0  0  0  0  0  0  0
  -24.5190  -26.5250   55.6490 C   0  0  0  0  0  0  0  0  0  0  0  0
  -23.2320  -27.1300   55.1710 C   0  0  0  0  0  0  0  0  0  0  0  0
  -21.9330  -26.4240   55.4210 C   0  0  0  0  0  0  0  0  0  0  0  0
  -20.6460  -27.0300   54.9430 C   0  0  0  0  0  3  0  0  0  0  0  0
  -19.3470  -26.3240   55.1930 N   0  0  0  0  0  0  0  0  0  0  0  0
  -19.3330  -25.0130   55.9210 C   0  0  0  0  0  0  0  0  0  0  0  0
  -20.6200  -24.4070   56.3980 N   0  0  0  0  0  2  0  0  0  0  0  0
  -21.9190  -25.1130   56.1480 C   0  0  0  0  0  0  0  0  0  0  0  0
  -23.2060  -24.5070   56.6260 C   0  0  0  0  0  0  0  0  0  0  0  0
  -24.5060  -25.2130   56.3760 N   0  0  0  0  0  0  0  0  0  0  0  0
  -23.2410  -28.0330   54.6700 H   0  0  0  0  0  0  0  0  0  0  0  0
  -18.4390  -24.5270   56.0930 H   0  0  0  0  0  0  0  0  0  0  0  0
  -23.1970  -23.6050   57.1270 H   0  0  0  0  0  0  0  0  0  0  0  0
  -25.8180  -27.2310   55.3990 N   0  0  0  0  0  0  0  0  0  0  0  0
  -27.1160  -26.5480   55.7170 C   0  0  0  0  0  0  0  0  0  0  0  0
  -27.1140  -25.5580   56.1220 H   0  0  0  0  0  0  0  0  0  0  0  0
  -28.0430  -27.0520   55.5380 H   0  0  0  0  0  0  0  0  0  0  0  0
  -28.0410  -26.0610   55.9440 H   0  0  0  0  0  0  0  0  0  0  0  0
  -25.8210  -28.6190   54.8310 C   0  0  0  0  0  0  0  0  0  0  0  0
  -26.7480  -29.1220   54.6520 H   0  0  0  0  0  0  0  0  0  0  0  0
  -24.8950  -29.1060   54.6040 H   0  0  0  0  0  0  0  0  0  0  0  0
  -25.8220  -29.6100   54.4250 H   0  0  0  0  0  0  0  0  0  0  0  0
  1  9  1  0
  2  3  1  0
  2  1  2  0
  3  4  2  0
  4  5  1  0
  4  8  1  0
  5  6  2  0
  6  7  1  0
  6 14  1  0
  7 12  1  0
  8  7  1  0
  9  8  2  0
  9 13  1  0
 10  2  1  0
 11  3  1  0
 14 16  1  0
 14 17  1  0
 15 14  1  0
 17 22  2  0
 17 18  1  0
 18 19  2  0
 19 20  1  0
 19 24  1  0
 20 25  1  0
 21 26  1  0
 21 20  2  0
 22 21  1  0
 23 18  1  0
 27 22  1  0
 28  1  1  0
 29 28  1  0
 30 39  1  0
 31 32  1  0
 31 30  2  0
 32 37  2  0
 33 28  1  0
 33 34  1  0
 33 32  1  0
 34 35  2  0
 35 41  1  0
 35 36  1  0
 37 36  1  0
 37 38  1  0
 38 42  1  0
 39 38  2  0
 40 31  1  0
 43 30  1  0
 43 44  1  0
 44 47  1  0
 44 45  1  0
 46 44  1  0
 48 43  1  0
 49 48  1  0
 50 48  1  0
 51 48  1  0
M  END
>  <minimizedAffinity>  (281) 
-9.84055614

$$$$

     RDKit          3D

 57 55  0  0  0  0  0  0  0  0999 V2000
  -18.2320  -31.0540   55.1620 C   0  0  0  0  0  0  0  0  0  0  0  0
  -17.3600  -32.1140   55.7660 C   0  0  0  0  0  0  0  0  0  0  0  0
  -17.9800  -33.4480   55.4760 N   0  0  0  0  0  0  0  0  0  0  0  0
  -19.2370  -33.2130   54.6920 C   0  0  0  0  0  0  0  0  0  0  0  0
  -19.3940  -31.7340   54.4980 N   0  0  0  0  0  0  0  0  0  0  0  0
  -19.8820  -33.9410   54.3470 H   0  0  0  0  0  0  0  0  0  0  0  0
  -20.5130  -31.0530   53.7690 C   0  0  0  0  0  2  0  0  0  0  0  0
  -20.2180  -29.9310   52.8190 C   0  0  0  0  0  2  0  0  0  0  0  0
  -21.3380  -29.2500   52.0890 C   0  0  0  0  0  2  0  0  0  0  0  0
  -22.7540  -29.6920   52.3100 N   0  0  0  0  0  1  0  0  0  0  0  0
  -23.0500  -30.8150   53.2600 C   0  0  0  0  0  2  0  0  0  0  0  0
  -21.9300  -31.4950   53.9900 C   0  0  0  0  0  2  0  0  0  0  0  0
  -21.3130  -30.5680   53.2490 H   0  0  0  0  0  0  0  0  0  0  0  0
  -19.2070  -29.6160   52.6610 H   0  0  0  0  0  0  0  0  0  0  0  0
  -20.0070  -29.1300   52.1400 H   0  0  0  0  0  0  0  0  0  0  0  0
  -21.1270  -28.4500   51.4120 H   0  0  0  0  0  0  0  0  0  0  0  0
  -22.1370  -28.7650   51.5690 H   0  0  0  0  0  0  0  0  0  0  0  0
  -23.5160  -29.2300   51.8140 H   0  0  0  0  0  0  0  0  0  0  0  0
  -24.0610  -31.1290   53.4180 H   0  0  0  0  0  0  0  0  0  0  0  0
  -23.2610  -31.6150   53.9380 H   0  0  0  0  0  0  0  0  0  0  0  0
  -22.1410  -32.2950   54.6670 H   0  0  0  0  0  0  0  0  0  0  0  0
  -21.1300  -31.9800   54.5100 H   0  0  0  0  0  0  0  0  0  0  0  0
  -16.0880  -31.8800   56.5270 C   0  0  0  0  0  0  0  0  0  0  0  0
  -16.0970  -31.8990   58.0270 C   0  0  0  0  0  0  0  0  0  0  0  0
  -14.8260  -31.6650   58.7880 C   0  0  0  0  0  0  0  0  0  0  0  0
  -13.5460  -31.4120   58.0490 C   0  0  0  0  0  0  0  0  0  0  0  0
  -12.2750  -31.1780   58.8110 F   0  0  0  0  0  0  0  0  0  0  0  0
  -13.5360  -31.3920   56.5490 C   0  0  0  0  0  0  0  0  0  0  0  0
  -14.8070  -31.6260   55.7890 C   0  0  0  0  0  0  0  0  0  0  0  0
  -16.9780  -32.0740   58.5350 H   0  0  0  0  0  0  0  0  0  0  0  0
  -14.8330  -31.6790   59.8200 H   0  0  0  0  0  0  0  0  0  0  0  0
  -12.6550  -31.2170   56.0420 H   0  0  0  0  0  0  0  0  0  0  0  0
  -14.8000  -31.6120   54.7560 H   0  0  0  0  0  0  0  0  0  0  0  0
  -18.7470  -27.1920   55.9140 C   0  0  0  0  0  0  0  0  0  0  0  0
  -17.4980  -26.6170   55.3140 N   0  0  0  0  0  0  0  0  0  0  0  0
  -16.4940  -27.5220   54.6630 C   0  0  0  0  0  3  0  0  0  0  0  0
  -16.7390  -29.0010   54.6130 C   0  0  0  0  0  0  0  0  0  0  0  0
  -17.9880  -29.5750   55.2130 C   0  0  0  0  0  0  0  0  0  0  0  0
  -18.9920  -28.6710   55.8630 N   0  0  0  0  0  0  0  0  0  0  0  0
  -15.6350  -27.1260   54.2510 H   0  0  0  0  0  0  0  0  0  0  0  0
  -16.0480  -29.6230   54.1650 H   0  0  0  0  0  0  0  0  0  0  0  0
  -19.7520  -26.2870   56.5640 O   0  0  0  0  0  0  0  0  0  0  0  0
  -24.1300  -26.7450   55.6300 C   0  0  0  0  0  0  0  0  0  0  0  0
  -23.5990  -25.4270   56.1100 C   0  0  0  0  0  0  0  0  0  0  0  0
  -22.1400  -25.2740   56.4210 C   0  0  0  0  0  0  0  0  0  0  0  0
  -21.2110  -26.4400   56.2530 C   0  0  0  0  0  0  0  0  0  0  0  0
  -21.7420  -27.7580   55.7720 C   0  0  0  0  0  0  0  0  0  0  0  0
  -23.2010  -27.9110   55.4610 C   0  0  0  0  0  0  0  0  0  0  0  0
  -24.2380  -24.6250   56.2260 H   0  0  0  0  0  0  0  0  0  0  0  0
  -21.7750  -24.3670   56.7520 H   0  0  0  0  0  0  0  0  0  0  0  0
  -21.1030  -28.5600   55.6560 H   0  0  0  0  0  0  0  0  0  0  0  0
  -23.5660  -28.8180   55.1300 H   0  0  0  0  0  0  0  0  0  0  0  0
  -26.5570  -25.8220   55.7120 N   0  0  0  0  0  0  0  0  0  0  0  0
  -25.5890  -26.8980   55.3180 C   0  0  0  0  0  0  0  0  0  0  0  0
  -26.0810  -28.1270   54.6120 O   0  0  0  0  0  0  0  0  0  0  0  0
  -26.2340  -25.0150   56.1750 H   0  0  0  0  0  0  0  0  0  0  0  0
  -27.5140  -25.9220   55.5080 H   0  0  0  0  0  0  0  0  0  0  0  0
  1 38  1  0
  1  2  2  0
  2 23  1  0
  3  2  1  0
  4  3  2  0
  5  4  1  0
  5  1  1  0
  6  4  1  0
  7  5  1  0
 11 19  1  0
 11 20  1  0
 12 22  1  0
 12 21  1  0
 13  7  1  0
 14  8  1  0
 15  8  1  0
 16  9  1  0
 17  9  1  0
 18 10  1  0
 23 24  1  0
 24 30  1  0
 24 25  2  0
 25 31  1  0
 26 25  1  0
 26 27  1  0
 28 26  2  0
 29 23  2  0
 29 28  1  0
 32 28  1  0
 33 29  1  0
 34 42  1  0
 35 34  2  0
 36 35  1  0
 37 36  1  0
 37 38  2  0
 38 39  1  0
 39 34  2  0
 40 36  1  0
 41 37  1  0
 43 44  1  0
 44 49  1  0
 44 45  2  0
 45 50  1  0
 46 45  1  0
 46 42  1  0
 47 46  2  0
 48 43  2  0
 48 47  1  0
 51 47  1  0
 52 48  1  0
 53 56  1  0
 54 43  1  0
 54 53  1  0
 55 54  2  0
 57 53  1  0
M  END
>  <minimizedAffinity>  (282) 
-9.26905918

$$$$

     RDKit          3D

 32 31  0  0  0  0  0  0  0  0999 V2000
  -13.4190  -30.4540   55.6070 O   0  0  0  0  0  1  0  0  0  0  0  0
  -14.5840  -31.3990   55.5900 C   0  0  0  0  0  2  0  0  0  0  0  0
  -15.9840  -30.8640   55.6580 N   0  0  0  0  0  0  0  0  0  0  0  0
  -16.2180  -29.3860   55.7420 C   0  0  0  0  0  0  0  0  0  0  0  0
  -15.1580  -28.3240   55.7680 N   0  0  0  0  0  0  0  0  0  0  0  0
  -15.8390  -26.9900   55.8580 N   0  0  0  0  0  0  0  0  0  0  0  0
  -17.3200  -27.2270   55.8870 C   0  0  0  0  0  0  0  0  0  0  0  0
  -18.4850  -26.2860   55.9700 N   0  0  0  0  0  0  0  0  0  0  0  0
  -19.8850  -26.8250   55.9810 C   0  0  0  0  0  0  0  0  0  0  0  0
  -20.1190  -28.3050   55.9090 C   0  0  0  0  0  0  0  0  0  0  0  0
  -18.9540  -29.2460   55.8270 C   0  0  0  0  0  0  0  0  0  0  0  0
  -17.5540  -28.7070   55.8160 C   0  0  0  0  0  0  0  0  0  0  0  0
  -16.7490  -31.4840   55.6460 H   0  0  0  0  0  0  0  0  0  0  0  0
  -15.3920  -26.1140   55.8910 H   0  0  0  0  0  0  0  0  0  0  0  0
  -21.0830  -28.6760   55.9170 H   0  0  0  0  0  0  0  0  0  0  0  0
  -19.1150  -30.2640   55.7780 H   0  0  0  0  0  0  0  0  0  0  0  0
  -21.0500  -25.8850   56.0630 C   0  0  0  0  0  0  0  0  0  0  0  0
  -22.4830  -26.2300   55.7860 C   0  0  0  0  0  0  0  0  0  0  0  0
  -23.3060  -24.9920   55.9890 C   0  0  0  0  0  0  0  0  0  0  0  0
  -22.3810  -23.8810   56.3910 C   0  0  0  0  0  0  0  0  0  0  0  0
  -20.9870  -24.4330   56.4370 O   0  0  0  0  0  0  0  0  0  0  0  0
  -22.8410  -27.1570   55.5060 H   0  0  0  0  0  0  0  0  0  0  0  0
  -24.3280  -24.9170   55.8730 H   0  0  0  0  0  0  0  0  0  0  0  0
  -22.6560  -22.9090   56.5990 H   0  0  0  0  0  0  0  0  0  0  0  0
  -14.3490  -32.8780   55.5050 C   0  0  0  0  0 15  0  0  0  0  0  0
  -13.7700  -34.0620   54.7890 C   0  0  0  0  0  3  0  0  0  0  0  0
  -14.5210  -34.2550   56.0750 C   0  0  0  0  0  2  0  0  0  0  0  0
  -14.1810  -33.9330   55.4450 H   0  0  0  0  0  0  0  0  0  0  0  0
  -13.2240  -34.4710   53.9660 H   0  0  0  0  0  0  0  0  0  0  0  0
  -13.7470  -35.1170   54.9690 H   0  0  0  0  0  0  0  0  0  0  0  0
  -14.9000  -34.9010   56.8380 H   0  0  0  0  0  0  0  0  0  0  0  0
  -15.0170  -33.6060   56.7650 H   0  0  0  0  0  0  0  0  0  0  0  0
  2  1  1  0
  2  3  1  0
  3  4  1  0
  4  5  2  0
  4 12  1  0
  5  6  1  0
  6  7  1  0
  6 14  1  0
  7  8  1  0
  8  9  2  0
  9 17  1  0
 10 15  1  0
 10  9  1  0
 11 10  2  0
 12 11  1  0
 12  7  2  0
 13  3  1  0
 16 11  1  0
 17 21  1  0
 18 19  1  0
 18 17  2  0
 19 20  2  0
 20 21  1  0
 20 24  1  0
 22 18  1  0
 23 19  1  0
 26 30  1  0
 26 28  1  0
 27 32  1  0
 27 31  1  0
 29 26  1  0
M  END
>  <minimizedAffinity>  (283) 
-7.65653419

$$$$

     RDKit          3D

 41 41  0  0  0  0  0  0  0  0999 V2000
  -18.1140  -28.2460   55.7860 C   0  0  0  0  0  0  0  0  0  0  0  0
  -16.7680  -27.5870   55.7160 C   0  0  0  0  0  0  0  0  0  0  0  0
  -15.5260  -28.4250   55.6360 C   0  0  0  0  0  0  0  0  0  0  0  0
  -15.6310  -29.9210   55.6260 C   0  0  0  0  0  0  0  0  0  0  0  0
  -14.5900  -31.0000   55.5550 C   0  0  0  0  0  0  0  0  0  0  0  0
  -13.1070  -30.7890   55.4720 N   0  0  0  0  0  0  0  0  0  0  0  0
  -12.1850  -31.9710   55.4070 C   0  0  0  0  0  0  0  0  0  0  0  0
  -12.7460  -33.3610   55.4250 O   0  0  0  0  0  0  0  0  0  0  0  0
  -15.2920  -32.3240   55.5810 N   0  0  0  0  0  0  0  0  0  0  0  0
  -16.7670  -32.0650   55.6690 N   0  0  0  0  0  0  0  0  0  0  0  0
  -16.9760  -30.5800   55.6960 C   0  0  0  0  0  0  0  0  0  0  0  0
  -18.2180  -29.7420   55.7760 C   0  0  0  0  0  0  0  0  0  0  0  0
  -16.6970  -26.5580   55.7220 H   0  0  0  0  0  0  0  0  0  0  0  0
  -14.6000  -27.9720   55.5870 H   0  0  0  0  0  0  0  0  0  0  0  0
  -12.7390  -29.8760   55.4610 H   0  0  0  0  0  0  0  0  0  0  0  0
  -17.4750  -32.7500   55.7020 H   0  0  0  0  0  0  0  0  0  0  0  0
  -19.1440  -30.1950   55.8240 H   0  0  0  0  0  0  0  0  0  0  0  0
  -21.8390  -25.7330   56.0250 C   0  0  0  0  0  0  0  0  0  0  0  0
  -21.9200  -27.1500   55.5400 C   0  0  0  0  0  0  0  0  0  0  0  0
  -20.6790  -27.9870   55.4600 C   0  0  0  0  0  0  0  0  0  0  0  0
  -19.3560  -27.4080   55.8660 C   0  0  0  0  0  0  0  0  0  0  0  0
  -19.2740  -25.9910   56.3510 C   0  0  0  0  0  0  0  0  0  0  0  0
  -20.5160  -25.1530   56.4300 C   0  0  0  0  0  0  0  0  0  0  0  0
  -22.8310  -27.5480   55.2620 H   0  0  0  0  0  0  0  0  0  0  0  0
  -20.7340  -28.9620   55.1270 H   0  0  0  0  0  0  0  0  0  0  0  0
  -18.3640  -25.5920   56.6290 H   0  0  0  0  0  0  0  0  0  0  0  0
  -20.4600  -24.1780   56.7640 H   0  0  0  0  0  0  0  0  0  0  0  0
  -23.0810  -24.8950   56.1050 S   0  0  2  0  0  0  0  0  0  0  0  0
  -23.9200  -26.1380   56.1030 O   0  0  0  0  0  0  0  0  0  0  0  0
  -22.2420  -23.6520   56.1070 O   0  0  0  0  0  0  0  0  0  0  0  0
  -24.3220  -24.0570   56.1850 N   0  0  0  0  0  0  0  0  0  0  0  0
  -25.2390  -24.5050   56.2110 H   0  0  0  0  0  0  0  0  0  0  0  0
  -24.2500  -23.0400   56.2130 H   0  0  0  0  0  0  0  0  0  0  0  0
  -10.7020  -31.7610   55.3240 C   0  0  0  0  0  1  0  0  0  0  0  0
   -9.5050  -31.2150   54.6030 C   0  0  0  0  0  2  0  0  0  0  0  0
   -9.3290  -31.9430   55.9030 C   0  0  0  0  0  3  0  0  0  0  0  0
   -9.6430  -31.6110   55.2660 H   0  0  0  0  0  0  0  0  0  0  0  0
   -9.0860  -30.6900   53.7710 H   0  0  0  0  0  0  0  0  0  0  0  0
   -8.4510  -31.2040   54.7860 H   0  0  0  0  0  0  0  0  0  0  0  0
   -8.6920  -32.3180   56.6760 H   0  0  0  0  0  0  0  0  0  0  0  0
   -9.9890  -32.4170   56.6000 H   0  0  0  0  0  0  0  0  0  0  0  0
  1 21  1  0
  2 13  1  0
  2  1  2  0
  3  2  1  0
  4  3  2  0
  4 11  1  0
  5  9  2  0
  5  4  1  0
  6  5  1  0
  7  8  2  0
  7  6  1  0
  9 10  1  0
 10 11  1  0
 10 16  1  0
 11 12  2  0
 12  1  1  0
 12 17  1  0
 14  3  1  0
 15  6  1  0
 18 28  1  0
 18 23  1  0
 19 18  2  0
 20 19  1  0
 20 21  2  0
 21 22  1  0
 22 23  2  0
 22 26  1  0
 23 27  1  0
 24 19  1  0
 25 20  1  0
 28 30  2  0
 28 31  1  0
 29 28  2  0
 31 32  1  0
 31 33  1  0
 34  7  1  0
 35 39  1  0
 36 41  1  0
 36 40  1  0
 37 36  1  0
 38 35  1  0
M  END
>  <minimizedAffinity>  (284) 
-8.91466904

$$$$

     RDKit          3D

 44 46  0  0  0  0  0  0  0  0999 V2000
  -17.6430  -30.5330   55.7940 C   0  0  0  0  0  0  0  0  0  0  0  0
  -19.1170  -30.3850   55.5660 C   0  0  0  0  0  0  0  0  0  0  0  0
  -19.3840  -28.9670   55.1580 C   0  0  0  0  0  0  0  0  0  0  0  0
  -18.0730  -28.2380   55.1350 S   0  0  0  0  0  0  0  0  0  0  0  0
  -16.9970  -29.2060   55.5280 C   0  0  0  0  0  0  0  0  0  0  0  0
  -19.8250  -31.1290   55.6710 H   0  0  0  0  0  0  0  0  0  0  0  0
  -20.7240  -28.3800   54.8310 N   0  0  0  0  0  0  0  0  0  0  0  0
  -21.7530  -28.9820   53.9210 C   0  0  0  0  0  0  0  0  0  0  0  0
  -22.9370  -28.0620   53.8840 N   0  0  0  0  0  0  0  0  0  0  0  0
  -22.6400  -26.8900   54.7730 C   0  0  0  0  0  0  0  0  0  0  0  0
  -23.4380  -25.6690   55.1240 C   0  0  0  0  0  0  0  0  0  0  0  0
  -22.8680  -24.6450   56.0600 C   0  0  0  0  0  0  0  0  0  0  0  0
  -21.5010  -24.8410   56.6460 C   0  0  0  0  0  0  0  0  0  0  0  0
  -20.7040  -26.0620   56.2940 C   0  0  0  0  0  0  0  0  0  0  0  0
  -21.2730  -27.0860   55.3580 C   0  0  0  0  0  0  0  0  0  0  0  0
  -21.6630  -29.8740   53.4100 H   0  0  0  0  0  0  0  0  0  0  0  0
  -24.3780  -25.5340   54.7210 H   0  0  0  0  0  0  0  0  0  0  0  0
  -23.4170  -23.8050   56.3020 H   0  0  0  0  0  0  0  0  0  0  0  0
  -21.1100  -24.1370   57.2900 H   0  0  0  0  0  0  0  0  0  0  0  0
  -19.7630  -26.1970   56.6970 H   0  0  0  0  0  0  0  0  0  0  0  0
  -15.5330  -28.9010   55.6350 C   0  0  0  0  0  0  0  0  0  0  0  0
  -14.5280  -30.0140   55.5890 N   0  0  0  0  0  0  0  0  0  0  0  0
  -15.0720  -27.4810   55.7890 O   0  0  0  0  0  0  0  0  0  0  0  0
  -13.5670  -29.8130   55.6600 H   0  0  0  0  0  0  0  0  0  0  0  0
  -14.8300  -30.9460   55.4880 H   0  0  0  0  0  0  0  0  0  0  0  0
  -16.9370  -31.7880   56.2150 O   0  0  0  0  0  1  0  0  0  0  0  0
  -16.6770  -32.0500   57.6700 C   0  0  0  0  0  3  0  0  0  0  0  0
  -17.4920  -32.0690   58.3640 H   0  0  0  0  0  0  0  0  0  0  0  0
  -17.6770  -31.8820   57.3270 H   0  0  0  0  0  0  0  0  0  0  0  0
  -13.2160  -33.8490   58.4020 C   0  0  0  0  0  0  0  0  0  0  0  0
  -12.4740  -32.7560   59.1120 C   0  0  0  0  0  0  0  0  0  0  0  0
  -13.1320  -31.4280   59.3420 C   0  0  0  0  0  0  0  0  0  0  0  0
  -14.5340  -31.1930   58.8610 C   0  0  0  0  0  0  0  0  0  0  0  0
  -15.2760  -32.2860   58.1510 C   0  0  0  0  0  0  0  0  0  0  0  0
  -14.6170  -33.6140   57.9210 C   0  0  0  0  0  0  0  0  0  0  0  0
  -11.5100  -32.9180   59.4430 H   0  0  0  0  0  0  0  0  0  0  0  0
  -12.6220  -30.6760   59.8310 H   0  0  0  0  0  0  0  0  0  0  0  0
  -14.9870  -30.2790   59.0190 H   0  0  0  0  0  0  0  0  0  0  0  0
  -15.1280  -34.3650   57.4320 H   0  0  0  0  0  0  0  0  0  0  0  0
  -12.5580  -35.1770   58.1720 O   0  0  0  0  0  0  0  0  0  0  0  0
  -12.5710  -35.7930   56.8040 C   0  0  0  0  0  0  0  0  0  0  0  0
  -13.0490  -35.2850   55.9940 H   0  0  0  0  0  0  0  0  0  0  0  0
  -12.1010  -36.7400   56.6400 H   0  0  0  0  0  0  0  0  0  0  0  0
  -12.5800  -36.2320   55.8290 H   0  0  0  0  0  0  0  0  0  0  0  0
  1 26  1  0
  2  6  1  0
  2  1  1  0
  3  2  2  0
  4  3  1  0
  4  5  1  0
  5 21  1  0
  5  1  2  0
  7  3  1  0
  7 15  1  0
  8  7  1  0
  9  8  2  0
  9 10  1  0
 10 11  2  0
 10 15  1  0
 11 12  1  0
 12 18  1  0
 12 13  2  0
 13 19  1  0
 14 13  1  0
 14 20  1  0
 15 14  2  0
 16  8  1  0
 17 11  1  0
 21 23  2  0
 22 21  1  0
 22 24  1  0
 25 22  1  0
 27 34  1  0
 27 28  1  0
 29 27  1  0
 30 31  1  0
 31 32  2  0
 31 36  1  0
 32 37  1  0
 33 38  1  0
 33 32  1  0
 34 33  2  0
 35 34  1  0
 35 30  2  0
 39 35  1  0
 40 30  1  0
 41 40  1  0
 42 41  1  0
 43 41  1  0
 44 41  1  0
M  END
>  <minimizedAffinity>  (285) 
-9.43913651

$$$$

     RDKit          3D

 50 53  0  0  0  0  0  0  0  0999 V2000
  -18.8090  -26.4300   55.8750 C   0  0  0  0  0  0  0  0  0  0  0  0
  -17.4290  -26.2350   55.3200 C   0  0  0  0  0  0  0  0  0  0  0  0
  -16.5970  -27.4250   54.9440 C   0  0  0  0  0  0  0  0  0  0  0  0
  -17.1450  -28.8100   55.1230 C   0  0  0  0  0  0  0  0  0  0  0  0
  -18.5250  -29.0050   55.6780 C   0  0  0  0  0  0  0  0  0  0  0  0
  -19.3570  -27.8140   56.0540 C   0  0  0  0  0  0  0  0  0  0  0  0
  -17.0520  -25.2820   55.1970 H   0  0  0  0  0  0  0  0  0  0  0  0
  -15.6480  -27.2910   54.5620 H   0  0  0  0  0  0  0  0  0  0  0  0
  -18.9020  -29.9580   55.8010 H   0  0  0  0  0  0  0  0  0  0  0  0
  -20.3060  -27.9490   56.4360 H   0  0  0  0  0  0  0  0  0  0  0  0
  -16.3130  -30.0000   54.7470 N   0  0  0  0  0  0  0  0  0  0  0  0
  -15.1490  -30.4020   55.6030 C   0  0  0  0  0  0  0  0  0  0  0  0
  -14.8170  -29.6150   56.8360 O   0  0  0  0  0  0  0  0  0  0  0  0
  -14.3170  -31.5930   55.2270 N   0  0  0  0  0  0  0  0  0  0  0  0
  -16.5310  -30.5170   53.9380 H   0  0  0  0  0  0  0  0  0  0  0  0
  -14.5360  -32.1100   54.4180 H   0  0  0  0  0  0  0  0  0  0  0  0
  -13.1530  -31.9950   56.0840 C   0  0  0  0  0  0  0  0  0  0  0  0
  -11.7680  -31.5460   55.7250 C   0  0  0  0  0  0  0  0  0  0  0  0
  -10.6040  -31.9480   56.5820 C   0  0  0  0  0  0  0  0  0  0  0  0
  -10.8260  -32.7990   57.7970 C   0  0  0  0  0  0  0  0  0  0  0  0
  -12.2110  -33.2490   58.1550 C   0  0  0  0  0  0  0  0  0  0  0  0
  -13.3750  -32.8460   57.2990 C   0  0  0  0  0  0  0  0  0  0  0  0
  -11.6150  -30.9600   54.8890 H   0  0  0  0  0  0  0  0  0  0  0  0
   -9.6510  -31.6390   56.3350 H   0  0  0  0  0  0  0  0  0  0  0  0
  -10.0250  -33.0760   58.3860 H   0  0  0  0  0  0  0  0  0  0  0  0
  -12.3640  -33.8340   58.9910 H   0  0  0  0  0  0  0  0  0  0  0  0
  -14.3290  -33.1550   57.5450 H   0  0  0  0  0  0  0  0  0  0  0  0
  -19.6410  -25.2400   56.2510 O   0  0  0  0  0  0  0  0  0  0  0  0
  -28.2270  -27.4230   55.3330 C   0  0  0  0  0  0  0  0  0  0  0  0
  -28.3240  -26.0140   55.8390 O   0  0  0  0  0  0  0  0  0  0  0  0
  -26.8820  -28.0540   55.1270 N   0  0  0  0  0  0  0  0  0  0  0  0
  -25.6340  -27.2770   55.4260 C   0  0  0  0  0  0  0  0  0  0  0  0
  -24.2280  -27.7740   55.2690 N   0  0  0  0  0  0  0  0  0  0  0  0
  -23.2980  -26.6700   55.6800 C   0  0  0  0  0  0  0  0  0  0  0  0
  -21.8020  -26.5860   55.7330 C   0  0  0  0  0  0  0  0  0  0  0  0
  -21.1380  -25.3240   56.1980 C   0  0  0  0  0  0  0  0  0  0  0  0
  -21.9700  -24.1450   56.6090 C   0  0  0  0  0  0  0  0  0  0  0  0
  -23.4670  -24.2300   56.5550 C   0  0  0  0  0  0  0  0  0  0  0  0
  -24.1310  -25.4920   56.0910 C   0  0  0  0  0  0  0  0  0  0  0  0
  -25.5750  -25.8670   55.9340 N   0  0  0  0  0  0  0  0  0  0  0  0
  -26.8180  -28.9800   54.7950 H   0  0  0  0  0  0  0  0  0  0  0  0
  -21.2290  -27.3960   55.4510 H   0  0  0  0  0  0  0  0  0  0  0  0
  -21.5130  -23.2770   56.9280 H   0  0  0  0  0  0  0  0  0  0  0  0
  -24.0390  -23.4190   56.8380 H   0  0  0  0  0  0  0  0  0  0  0  0
  -26.3480  -25.2890   56.1300 H   0  0  0  0  0  0  0  0  0  0  0  0
  -29.4740  -28.2000   55.0350 O   0  0  0  0  0  0  0  0  0  0  0  0
  -30.1520  -28.0480   53.7050 C   0  0  0  0  0  0  0  0  0  0  0  0
  -29.7460  -27.3840   52.9700 H   0  0  0  0  0  0  0  0  0  0  0  0
  -31.0420  -28.6020   53.4920 H   0  0  0  0  0  0  0  0  0  0  0  0
  -30.6360  -27.9390   52.7570 H   0  0  0  0  0  0  0  0  0  0  0  0
  1  6  1  0
  1 28  1  0
  2  1  2  0
  3  4  2  0
  3  2  1  0
  4  5  1  0
  5  9  1  0
  5  6  2  0
  6 10  1  0
  7  2  1  0
  8  3  1  0
 11  4  1  0
 11 12  1  0
 12 13  2  0
 14 12  1  0
 14 17  1  0
 15 11  1  0
 16 14  1  0
 17 22  1  0
 18 17  2  0
 18 19  1  0
 19 20  2  0
 20 21  1  0
 20 25  1  0
 21 26  1  0
 22 27  1  0
 22 21  2  0
 23 18  1  0
 24 19  1  0
 29 30  2  0
 31 29  1  0
 31 32  1  0
 32 40  1  0
 33 32  2  0
 33 34  1  0
 34 35  2  0
 34 39  1  0
 35 36  1  0
 36 28  1  0
 36 37  2  0
 37 43  1  0
 38 37  1  0
 38 44  1  0
 39 38  2  0
 40 39  1  0
 40 45  1  0
 41 31  1  0
 42 35  1  0
 46 29  1  0
 47 46  1  0
 48 47  1  0
 49 47  1  0
 50 47  1  0
M  END
>  <minimizedAffinity>  (286) 
-9.45139313

$$$$

     RDKit          3D

 66 62  0  0  0  0  0  0  0  0999 V2000
  -19.4870  -26.6340   55.8650 C   0  0  0  0  0  0  0  0  0  0  0  0
  -19.4030  -25.2060   56.3170 C   0  0  0  0  0  0  0  0  0  0  0  0
  -20.6570  -24.4060   56.5110 C   0  0  0  0  0  0  0  0  0  0  0  0
  -21.9950  -25.0340   56.2550 C   0  0  0  0  0  0  0  0  0  0  0  0
  -23.2490  -24.2340   56.4500 N   0  0  0  0  0  0  0  0  0  0  0  0
  -24.5870  -24.8620   56.1930 C   0  0  0  0  0  0  0  0  0  0  0  0
  -24.6710  -26.2900   55.7420 N   0  0  0  0  0  0  0  0  0  0  0  0
  -23.4170  -27.0900   55.5470 C   0  0  0  0  0  0  0  0  0  0  0  0
  -23.5010  -28.5180   55.0960 N   0  0  0  0  0  0  0  0  0  0  0  0
  -22.0790  -26.4620   55.8040 C   0  0  0  0  0  0  0  0  0  0  0  0
  -20.8250  -27.2620   55.6090 C   0  0  0  0  0  0  0  0  0  0  0  0
  -18.4830  -24.7740   56.4930 H   0  0  0  0  0  0  0  0  0  0  0  0
  -20.6000  -23.4230   56.8220 H   0  0  0  0  0  0  0  0  0  0  0  0
  -25.4490  -24.3110   56.3270 H   0  0  0  0  0  0  0  0  0  0  0  0
  -22.6780  -29.0440   54.9680 H   0  0  0  0  0  0  0  0  0  0  0  0
  -20.8830  -28.2450   55.2980 H   0  0  0  0  0  0  0  0  0  0  0  0
  -24.8390  -29.1460   54.8390 C   0  0  0  0  0  0  0  0  0  0  0  0
  -25.3150  -29.3470   53.4310 C   0  0  0  0  0  0  0  0  0  0  0  0
  -26.6530  -29.9750   53.1750 C   0  0  0  0  0  0  0  0  0  0  0  0
  -27.5140  -30.4020   54.3260 C   0  0  0  0  0  0  0  0  0  0  0  0
  -27.0380  -30.2010   55.7340 C   0  0  0  0  0  0  0  0  0  0  0  0
  -27.8990  -30.6280   56.8860 F   0  0  0  0  0  0  0  0  0  0  0  0
  -25.7000  -29.5730   55.9910 C   0  0  0  0  0  0  0  0  0  0  0  0
  -24.7230  -29.0540   52.6390 H   0  0  0  0  0  0  0  0  0  0  0  0
  -26.9810  -30.1140   52.2060 H   0  0  0  0  0  0  0  0  0  0  0  0
  -25.3720  -29.4340   56.9600 H   0  0  0  0  0  0  0  0  0  0  0  0
  -28.8520  -31.0300   54.0700 O   0  0  0  0  0  0  0  0  0  0  0  0
  -30.0690  -30.1670   53.9170 C   0  0  0  0  0  0  0  0  0  0  0  0
  -30.5920  -30.1390   52.9840 H   0  0  0  0  0  0  0  0  0  0  0  0
  -30.9380  -29.5510   53.8080 H   0  0  0  0  0  0  0  0  0  0  0  0
  -30.5530  -29.3410   55.0720 C   0  0  0  0  0  0  0  0  0  0  0  0
  -30.0880  -27.9240   55.2280 C   0  0  0  0  0  0  0  0  0  0  0  0
  -30.5720  -27.0990   56.3840 C   0  0  0  0  0  0  0  0  0  0  0  0
  -31.5210  -27.6910   57.3830 C   0  0  0  0  0  0  0  0  0  0  0  0
  -31.9860  -29.1080   57.2270 C   0  0  0  0  0  0  0  0  0  0  0  0
  -31.5020  -29.9330   56.0720 C   0  0  0  0  0  0  0  0  0  0  0  0
  -29.4350  -27.5160   54.5410 H   0  0  0  0  0  0  0  0  0  0  0  0
  -30.2520  -26.1230   56.4910 H   0  0  0  0  0  0  0  0  0  0  0  0
  -31.8540  -27.1230   58.1780 H   0  0  0  0  0  0  0  0  0  0  0  0
  -32.6390  -29.5160   57.9150 H   0  0  0  0  0  0  0  0  0  0  0  0
  -31.8220  -30.9090   55.9650 H   0  0  0  0  0  0  0  0  0  0  0  0
  -16.7060  -29.2990   55.3890 C   0  0  0  0  0 15  0  0  0  0  0  0
  -15.9030  -28.0320   55.3530 C   0  0  0  0  0  2  0  0  0  0  0  0
  -16.8480  -26.8790   55.5270 C   0  0  0  0  0  0  0  0  0  0  0  0
  -18.2340  -27.4340   55.6710 C   0  0  0  0  0  0  0  0  0  0  0  0
  -18.1460  -28.9290   55.5860 O   0  0  0  0  0  1  0  0  0  0  0  0
  -14.8810  -27.9650   55.2290 H   0  0  0  0  0  0  0  0  0  0  0  0
  -16.5890  -25.8800   55.5440 H   0  0  0  0  0  0  0  0  0  0  0  0
  -16.1630  -30.6900   55.2540 C   0  0  0  0  0  3  0  0  0  0  0  0
  -16.4600  -31.3020   54.4280 H   0  0  0  0  0  0  0  0  0  0  0  0
  -16.8470  -30.3090   54.5250 H   0  0  0  0  0  0  0  0  0  0  0  0
  -12.3250  -32.8270   59.3410 O   0  0  0  0  0 15  0  0  0  0  0  0
  -13.2850  -32.2930   58.3190 S   0  0  0  0  0 15  0  0  0  0  0  0
  -14.7630  -32.3750   58.5630 C   0  0  0  0  0  2  0  0  0  0  0  0
  -15.7220  -31.8410   57.5410 C   0  0  0  0  0  2  0  0  0  0  0  0
  -15.2030  -31.2240   56.2750 N   0  0  0  0  0  2  0  0  0  0  0  0
  -13.7260  -31.1420   56.0320 C   0  0  0  0  0  3  0  0  0  0  0  0
  -12.7660  -31.6760   57.0540 C   0  0  0  0  0  2  0  0  0  0  0  0
  -15.1330  -32.8150   59.4650 H   0  0  0  0  0  0  0  0  0  0  0  0
  -15.8160  -32.4330   58.7360 H   0  0  0  0  0  0  0  0  0  0  0  0
  -16.7760  -31.8990   57.7140 H   0  0  0  0  0  0  0  0  0  0  0  0
  -16.4060  -31.4600   56.8130 H   0  0  0  0  0  0  0  0  0  0  0  0
  -13.3560  -30.7020   55.1290 H   0  0  0  0  0  0  0  0  0  0  0  0
  -12.6710  -31.0830   55.8580 H   0  0  0  0  0  0  0  0  0  0  0  0
  -11.7120  -31.6180   56.8800 H   0  0  0  0  0  0  0  0  0  0  0  0
  -12.0810  -32.0570   57.7830 H   0  0  0  0  0  0  0  0  0  0  0  0
  1  2  1  0
  2 12  1  0
  2  3  2  0
  3 13  1  0
  4  5  1  0
  4  3  1  0
  6 14  1  0
  6  5  2  0
  7  6  1  0
  8  7  2  0
  8 10  1  0
  9  8  1  0
 10  4  2  0
 11 10  1  0
 11  1  2  0
 15  9  1  0
 16 11  1  0
 17  9  1  0
 17 23  1  0
 18 17  2  0
 19 18  1  0
 19 20  2  0
 20 21  1  0
 21 23  2  0
 21 22  1  0
 23 26  1  0
 24 18  1  0
 25 19  1  0
 27 20  1  0
 28 27  1  0
 28 31  1  0
 29 28  1  0
 30 28  1  0
 31 32  2  0
 31 36  1  0
 32 33  1  0
 33 38  1  0
 33 34  2  0
 34 39  1  0
 35 34  1  0
 35 40  1  0
 36 35  2  0
 37 32  1  0
 41 36  1  0
 43 44  1  0
 44 48  1  0
 44 45  2  0
 45  1  1  0
 46 45  1  0
 47 43  1  0
 49 56  1  0
 50 49  1  0
 51 49  1  0
 54 60  1  0
 54 59  1  0
 55 61  1  0
 57 56  1  0
 58 66  1  0
 62 55  1  0
 63 57  1  0
 64 57  1  0
 65 58  1  0
M  END
>  <minimizedAffinity>  (287) 
-10.9765654

$$$$

     RDKit          3D

 43 46  0  0  0  0  0  0  0  0999 V2000
  -17.7400  -32.3120   54.9940 C   0  0  0  0  0  0  0  0  0  0  0  0
  -18.3060  -30.9320   54.8340 S   0  0  0  0  0  0  0  0  0  0  0  0
  -17.2540  -29.9480   55.2540 C   0  0  0  0  0  0  0  0  0  0  0  0
  -16.0390  -30.7200   55.6740 C   0  0  0  0  0  0  0  0  0  0  0  0
  -16.3390  -32.1800   55.5140 C   0  0  0  0  0  0  0  0  0  0  0  0
  -15.1510  -30.3170   56.0140 H   0  0  0  0  0  0  0  0  0  0  0  0
  -17.3930  -28.4550   55.2540 N   0  0  0  0  0  0  0  0  0  0  0  0
  -16.3240  -27.4680   54.8880 C   0  0  0  0  0  0  0  0  0  0  0  0
  -16.8970  -26.0890   55.0280 N   0  0  0  0  0  0  0  0  0  0  0  0
  -18.3210  -26.2230   55.4810 C   0  0  0  0  0  0  0  0  0  0  0  0
  -19.3770  -25.2020   55.7840 C   0  0  0  0  0  0  0  0  0  0  0  0
  -20.7410  -25.6430   56.2280 C   0  0  0  0  0  0  0  0  0  0  0  0
  -21.0480  -27.1050   56.3680 C   0  0  0  0  0  0  0  0  0  0  0  0
  -19.9910  -28.1250   56.0640 C   0  0  0  0  0  0  0  0  0  0  0  0
  -18.6280  -27.6840   55.6210 C   0  0  0  0  0  0  0  0  0  0  0  0
  -15.3630  -27.6990   54.5910 H   0  0  0  0  0  0  0  0  0  0  0  0
  -19.1660  -24.1970   55.6880 H   0  0  0  0  0  0  0  0  0  0  0  0
  -21.9860  -27.4080   56.6730 H   0  0  0  0  0  0  0  0  0  0  0  0
  -20.2020  -29.1310   56.1610 H   0  0  0  0  0  0  0  0  0  0  0  0
  -21.7970  -24.6230   56.5310 C   0  0  0  0  0  0  0  0  0  0  0  0
  -22.8540  -23.6020   56.8340 F   0  0  0  0  0  0  0  0  0  0  0  0
  -20.7390  -23.5690   56.6710 F   0  0  0  0  0  0  0  0  0  0  0  0
  -22.8550  -25.6760   56.3900 F   0  0  0  0  0  0  0  0  0  0  0  0
  -17.7110  -34.8990   54.7620 N   0  0  0  0  0  0  0  0  0  0  0  0
  -18.4510  -33.5960   54.6890 C   0  0  0  0  0  0  0  0  0  0  0  0
  -19.9030  -33.5790   54.3110 O   0  0  0  0  0  0  0  0  0  0  0  0
  -16.7570  -34.9110   55.0100 H   0  0  0  0  0  0  0  0  0  0  0  0
  -18.1770  -35.7430   54.5610 H   0  0  0  0  0  0  0  0  0  0  0  0
  -15.4030  -33.3120   55.8190 O   0  0  0  0  0  0  0  0  0  0  0  0
  -15.1880  -33.7450   57.2400 C   0  0  0  0  0  0  0  0  0  0  0  0
  -15.7060  -34.6000   57.6230 H   0  0  0  0  0  0  0  0  0  0  0  0
  -15.0340  -34.0540   58.2520 H   0  0  0  0  0  0  0  0  0  0  0  0
  -14.2460  -32.9810   58.1220 C   0  0  0  0  0  0  0  0  0  0  0  0
  -14.7280  -31.7650   58.8560 C   0  0  0  0  0  0  0  0  0  0  0  0
  -13.7860  -31.0000   59.7390 C   0  0  0  0  0  0  0  0  0  0  0  0
  -12.3640  -31.4510   59.8870 C   0  0  0  0  0  0  0  0  0  0  0  0
  -11.8820  -32.6670   59.1530 C   0  0  0  0  0  0  0  0  0  0  0  0
  -12.8230  -33.4320   58.2700 C   0  0  0  0  0  0  0  0  0  0  0  0
  -12.3420  -34.6480   57.5350 Br  0  0  0  0  0  0  0  0  0  0  0  0
  -15.7070  -31.4550   58.7540 H   0  0  0  0  0  0  0  0  0  0  0  0
  -14.1180  -30.1640   60.2440 H   0  0  0  0  0  0  0  0  0  0  0  0
  -11.7160  -30.9250   60.4940 H   0  0  0  0  0  0  0  0  0  0  0  0
  -10.9030  -32.9780   59.2540 H   0  0  0  0  0  0  0  0  0  0  0  0
  1  5  2  0
  2  1  1  0
  2  3  1  0
  3  7  1  0
  3  4  2  0
  4  6  1  0
  5  4  1  0
  5 29  1  0
  7 15  1  0
  8  9  2  0
  8  7  1  0
  9 10  1  0
 10 15  2  0
 10 11  1  0
 11 12  2  0
 12 13  1  0
 12 20  1  0
 13 18  1  0
 14 19  1  0
 14 13  2  0
 15 14  1  0
 16  8  1  0
 17 11  1  0
 20 22  1  0
 20 21  1  0
 23 20  1  0
 24 27  1  0
 25 24  1  0
 25  1  1  0
 26 25  2  0
 28 24  1  0
 29 30  1  0
 30 31  1  0
 30 33  1  0
 30 32  1  0
 33 38  2  0
 33 34  1  0
 34 35  2  0
 35 36  1  0
 35 41  1  0
 36 42  1  0
 37 43  1  0
 37 36  2  0
 38 37  1  0
 39 38  1  0
 40 34  1  0
M  END
>  <minimizedAffinity>  (288) 
-10.1240864

$$$$

     RDKit          3D

 44 45  0  0  0  0  0  0  0  0999 V2000
  -17.8340  -29.0100   54.9190 C   0  0  0  0  0  0  0  0  0  0  0  0
  -16.8910  -27.8440   54.9410 C   0  0  0  0  0  0  0  0  0  0  0  0
  -15.5150  -28.0040   55.5200 C   0  0  0  0  0  0  0  0  0  0  0  0
  -15.0850  -29.3280   56.0760 N   0  0  0  0  0  0  0  0  0  0  0  0
  -16.0280  -30.4940   56.0540 C   0  0  0  0  0  0  0  0  0  0  0  0
  -15.5980  -31.8190   56.6100 N   0  0  0  0  0  0  0  0  0  0  0  0
  -17.4030  -30.3340   55.4750 N   0  0  0  0  0  0  0  0  0  0  0  0
  -17.1860  -26.9330   54.5590 H   0  0  0  0  0  0  0  0  0  0  0  0
  -14.8660  -27.2010   55.5360 H   0  0  0  0  0  0  0  0  0  0  0  0
  -16.2170  -32.5830   56.5950 H   0  0  0  0  0  0  0  0  0  0  0  0
  -22.6790  -26.1740   55.2590 C   0  0  0  0  0  3  0  0  0  0  0  0
  -21.4610  -25.9880   56.1140 C   0  0  0  0  0  0  0  0  0  0  0  0
  -20.2470  -26.8370   55.8840 C   0  0  0  0  0  0  0  0  0  0  0  0
  -20.2500  -27.8730   54.7980 C   0  0  0  0  0  0  0  0  0  0  0  0
  -19.2090  -28.8500   54.3400 C   0  0  0  0  0  0  0  0  0  0  0  0
  -19.7830  -29.6410   53.2020 C   0  0  0  0  0  0  0  0  0  0  0  0
  -21.1800  -29.1520   52.9560 N   0  0  0  0  0  0  0  0  0  0  0  0
  -21.4680  -28.0590   53.9430 N   0  0  0  0  0  0  0  0  0  0  0  0
  -22.6830  -27.2090   54.1730 N   0  0  0  0  0  0  0  0  0  0  0  0
  -21.4590  -25.2750   56.8610 H   0  0  0  0  0  0  0  0  0  0  0  0
  -19.4080  -26.7090   56.4720 H   0  0  0  0  0  0  0  0  0  0  0  0
  -19.3020  -30.3890   52.6790 H   0  0  0  0  0  0  0  0  0  0  0  0
  -23.8940  -25.3240   55.4890 O   0  0  0  0  0 15  0  0  0  0  0  0
  -25.0140  -25.8340   56.3470 C   0  0  0  0  0  3  0  0  0  0  0  0
  -24.9260  -25.8060   57.4140 H   0  0  0  0  0  0  0  0  0  0  0  0
  -24.1270  -25.4420   56.8010 H   0  0  0  0  0  0  0  0  0  0  0  0
  -26.2570  -26.3820   55.7120 C   0  0  0  0  0  0  0  0  0  0  0  0
  -27.0560  -26.7450   56.3250 H   0  0  0  0  0  0  0  0  0  0  0  0
  -26.3450  -26.4100   54.6460 H   0  0  0  0  0  0  0  0  0  0  0  0
  -27.1440  -26.7730   55.2590 H   0  0  0  0  0  0  0  0  0  0  0  0
  -14.2230  -31.9780   57.1890 C   0  0  0  0  0  0  0  0  0  0  0  0
  -13.2290  -32.8820   56.5220 C   0  0  0  0  0  0  0  0  0  0  0  0
  -11.8540  -33.0410   57.1010 C   0  0  0  0  0  0  0  0  0  0  0  0
  -11.4740  -32.2970   58.3460 C   0  0  0  0  0  0  0  0  0  0  0  0
  -12.4680  -31.3920   59.0130 C   0  0  0  0  0  0  0  0  0  0  0  0
  -13.8420  -31.2330   58.4340 C   0  0  0  0  0  0  0  0  0  0  0  0
  -13.4910  -33.3940   55.6650 H   0  0  0  0  0  0  0  0  0  0  0  0
  -11.1710  -33.6630   56.6420 H   0  0  0  0  0  0  0  0  0  0  0  0
  -10.5280  -32.4060   58.7440 H   0  0  0  0  0  0  0  0  0  0  0  0
  -14.5270  -30.6110   58.8930 H   0  0  0  0  0  0  0  0  0  0  0  0
  -12.0870  -30.6480   60.2580 C   0  0  0  0  0  0  0  0  0  0  0  0
  -11.7050  -29.9040   61.5030 F   0  0  0  0  0  0  0  0  0  0  0  0
  -13.5130  -30.6920   60.7220 F   0  0  0  0  0  0  0  0  0  0  0  0
  -10.6610  -30.6040   59.7940 F   0  0  0  0  0  0  0  0  0  0  0  0
  1  2  1  0
  1  7  2  0
  2  3  2  0
  3  9  1  0
  3  4  1  0
  5  4  2  0
  5  6  1  0
  6 31  1  0
  7  5  1  0
  8  2  1  0
 10  6  1  0
 11 12  1  0
 12 20  1  0
 13 12  2  0
 13 21  1  0
 14 13  1  0
 15 14  2  0
 15  1  1  0
 16 15  1  0
 17 16  2  0
 17 18  1  0
 18 19  1  0
 18 14  1  0
 19 11  2  0
 22 16  1  0
 24 26  1  0
 24 25  1  0
 27 28  1  0
 27 24  1  0
 29 27  1  0
 30 27  1  0
 31 36  1  0
 32 33  1  0
 32 31  2  0
 33 34  2  0
 34 39  1  0
 34 35  1  0
 35 41  1  0
 36 40  1  0
 36 35  2  0
 37 32  1  0
 38 33  1  0
 41 43  1  0
 41 42  1  0
 44 41  1  0
M  END
>  <minimizedAffinity>  (289) 
-9.49567509

$$$$

     RDKit          3D

 50 46  0  0  0  0  0  0  0  0999 V2000
  -20.1480  -26.5720   55.6880 C   0  0  0  0  0  0  0  0  0  0  0  0
  -19.1220  -25.6560   56.2890 N   0  0  0  0  0  0  0  0  0  0  0  0
  -17.7660  -26.2140   55.9780 C   0  0  0  0  0  0  0  0  0  0  0  0
  -17.9530  -27.4730   55.1840 N   0  0  0  0  0  0  0  0  0  0  0  0
  -19.4250  -27.6950   55.0050 C   0  0  0  0  0  0  0  0  0  0  0  0
  -16.8620  -25.8030   56.2600 H   0  0  0  0  0  0  0  0  0  0  0  0
  -26.1000  -25.8640   55.9670 F   0  0  0  0  0  0  0  0  0  0  0  0
  -24.6120  -26.0410   55.8970 C   0  0  0  0  0  0  0  0  0  0  0  0
  -23.7040  -24.8890   56.2130 C   0  0  0  0  0  0  0  0  0  0  0  0
  -22.2160  -25.0660   56.1430 C   0  0  0  0  0  0  0  0  0  0  0  0
  -21.6360  -26.3950   55.7580 C   0  0  0  0  0  0  0  0  0  0  0  0
  -22.5440  -27.5460   55.4420 C   0  0  0  0  0  0  0  0  0  0  0  0
  -24.0320  -27.3690   55.5110 C   0  0  0  0  0  0  0  0  0  0  0  0
  -24.1030  -23.9750   56.4780 H   0  0  0  0  0  0  0  0  0  0  0  0
  -21.5920  -24.2740   56.3610 H   0  0  0  0  0  0  0  0  0  0  0  0
  -22.1450  -28.4600   55.1760 H   0  0  0  0  0  0  0  0  0  0  0  0
  -24.6570  -28.1620   55.2940 H   0  0  0  0  0  0  0  0  0  0  0  0
  -20.0630  -28.8370   54.2720 C   0  0  0  0  0  0  0  0  0  0  0  0
  -20.2390  -30.1610   54.9540 C   0  0  0  0  0  0  0  0  0  0  0  0
  -20.8780  -31.3040   54.2210 C   0  0  0  0  0  0  0  0  0  0  0  0
  -21.3390  -31.1220   52.8060 N   0  0  0  0  0  0  0  0  0  0  0  0
  -21.1630  -29.7980   52.1240 C   0  0  0  0  0  0  0  0  0  0  0  0
  -20.5250  -28.6550   52.8560 C   0  0  0  0  0  0  0  0  0  0  0  0
  -19.9220  -30.2870   55.9290 H   0  0  0  0  0  0  0  0  0  0  0  0
  -20.9990  -32.2150   54.6910 H   0  0  0  0  0  0  0  0  0  0  0  0
  -21.4800  -29.6720   51.1500 H   0  0  0  0  0  0  0  0  0  0  0  0
  -20.4030  -27.7440   52.3880 H   0  0  0  0  0  0  0  0  0  0  0  0
  -16.8580  -28.3570   54.6610 C   0  0  0  0  0  0  0  0  0  0  0  0
  -16.8430  -28.6350   53.6290 H   0  0  0  0  0  0  0  0  0  0  0  0
  -16.0780  -28.9870   54.2890 H   0  0  0  0  0  0  0  0  0  0  0  0
  -15.7870  -28.8510   55.5870 C   0  0  0  0  0  0  0  0  0  0  0  0
  -15.1160  -28.1570   56.0480 H   0  0  0  0  0  0  0  0  0  0  0  0
  -15.0220  -29.2030   56.2480 H   0  0  0  0  0  0  0  0  0  0  0  0
  -15.6560  -30.3190   55.8670 C   0  0  0  0  0  3  0  0  0  0  0  0
  -16.3960  -31.0010   55.5060 H   0  0  0  0  0  0  0  0  0  0  0  0
  -15.5620  -31.3660   56.0670 H   0  0  0  0  0  0  0  0  0  0  0  0
  -14.4850  -30.8310   56.6540 N   0  0  0  0  0 15  0  0  0  0  0  0
  -13.1870  -31.1240   55.9620 C   0  0  0  0  0  2  0  0  0  0  0  0
  -12.0170  -31.6360   56.7490 C   0  0  0  0  0  2  0  0  0  0  0  0
  -12.1460  -31.8540   58.2270 O   0  0  0  0  0 15  0  0  0  0  0  0
  -13.4440  -31.5610   58.9190 C   0  0  0  0  0  2  0  0  0  0  0  0
  -14.6130  -31.0500   58.1320 C   0  0  0  0  0  2  0  0  0  0  0  0
  -13.0950  -30.9680   54.9080 H   0  0  0  0  0  0  0  0  0  0  0  0
  -12.2610  -31.3330   55.4690 H   0  0  0  0  0  0  0  0  0  0  0  0
  -11.0910  -31.8440   56.2560 H   0  0  0  0  0  0  0  0  0  0  0  0
  -11.1820  -32.0000   57.3110 H   0  0  0  0  0  0  0  0  0  0  0  0
  -13.5360  -31.7170   59.9730 H   0  0  0  0  0  0  0  0  0  0  0  0
  -14.3700  -31.3520   59.4120 H   0  0  0  0  0  0  0  0  0  0  0  0
  -15.5400  -30.8400   58.6250 H   0  0  0  0  0  0  0  0  0  0  0  0
  -15.4490  -30.6840   57.5700 H   0  0  0  0  0  0  0  0  0  0  0  0
  1 11  1  0
  1  2  1  0
  3  6  1  0
  3  2  2  0
  4  3  1  0
  5  4  1  0
  5  1  2  0
  8  7  1  0
  8  9  1  0
  9 14  1  0
 10  9  2  0
 10 15  1  0
 11 10  1  0
 12 13  1  0
 12 11  2  0
 13  8  2  0
 16 12  1  0
 17 13  1  0
 18 19  1  0
 18  5  1  0
 19 24  1  0
 20 25  1  0
 20 19  2  0
 21 20  1  0
 22 21  2  0
 22 23  1  0
 23 18  2  0
 26 22  1  0
 27 23  1  0
 28  4  1  0
 28 31  1  0
 29 28  1  0
 30 28  1  0
 31 34  1  0
 31 32  1  0
 31 33  1  0
 34 36  1  0
 35 34  1  0
 39 46  1  0
 41 48  1  0
 41 47  1  0
 42 49  1  0
 43 38  1  0
 44 38  1  0
 45 39  1  0
 50 42  1  0
M  END
>  <minimizedAffinity>  (290) 
-9.9086113

$$$$

     RDKit          3D

 68 69  0  0  0  0  0  0  0  0999 V2000
  -24.5070  -26.4250   55.7070 C   0  0  0  0  0  0  0  0  0  0  0  0
  -24.3960  -25.0390   56.2700 C   0  0  0  0  0  0  0  0  0  0  0  0
  -23.0450  -24.4370   56.5200 C   0  0  0  0  0  0  0  0  0  0  0  0
  -21.8050  -25.2210   56.2070 C   0  0  0  0  0  0  0  0  0  0  0  0
  -20.4540  -24.6190   56.4570 N   0  0  0  0  0  0  0  0  0  0  0  0
  -19.2140  -25.4030   56.1440 C   0  0  0  0  0  0  0  0  0  0  0  0
  -19.3250  -26.7880   55.5810 N   0  0  0  0  0  0  0  0  0  0  0  0
  -20.6760  -27.3910   55.3310 C   0  0  0  0  0  0  0  0  0  0  0  0
  -20.7870  -28.7760   54.7680 N   0  0  0  0  0  0  0  0  0  0  0  0
  -21.9160  -26.6070   55.6440 C   0  0  0  0  0  0  0  0  0  0  0  0
  -23.2670  -27.2090   55.3940 C   0  0  0  0  0  0  0  0  0  0  0  0
  -25.2490  -24.5000   56.4850 H   0  0  0  0  0  0  0  0  0  0  0  0
  -22.9690  -23.4830   56.9070 H   0  0  0  0  0  0  0  0  0  0  0  0
  -18.2850  -24.9880   56.3160 H   0  0  0  0  0  0  0  0  0  0  0  0
  -21.6730  -29.1720   54.6040 H   0  0  0  0  0  0  0  0  0  0  0  0
  -23.3430  -28.1630   55.0060 H   0  0  0  0  0  0  0  0  0  0  0  0
  -19.5470  -29.5600   54.4550 C   0  0  0  0  0  0  0  0  0  0  0  0
  -18.8910  -30.3850   55.5230 C   0  0  0  0  0  0  0  0  0  0  0  0
  -17.6510  -31.1680   55.2100 C   0  0  0  0  0  0  0  0  0  0  0  0
  -17.0660  -31.1280   53.8290 C   0  0  0  0  0  0  0  0  0  0  0  0
  -17.7220  -30.3040   52.7610 C   0  0  0  0  0  0  0  0  0  0  0  0
  -18.9620  -29.5200   53.0740 C   0  0  0  0  0  0  0  0  0  0  0  0
  -19.2930  -30.4130   56.4730 H   0  0  0  0  0  0  0  0  0  0  0  0
  -17.2000  -31.7360   55.9450 H   0  0  0  0  0  0  0  0  0  0  0  0
  -17.3200  -30.2760   51.8110 H   0  0  0  0  0  0  0  0  0  0  0  0
  -19.4130  -28.9520   52.3390 H   0  0  0  0  0  0  0  0  0  0  0  0
  -15.8260  -31.9120   53.5160 O   0  0  0  0  0  0  0  0  0  0  0  0
  -15.2630  -32.8620   54.5320 C   0  0  0  0  0  0  0  0  0  0  0  0
  -15.6690  -33.8480   54.6250 H   0  0  0  0  0  0  0  0  0  0  0  0
  -14.8620  -33.5390   55.2560 H   0  0  0  0  0  0  0  0  0  0  0  0
  -14.1320  -32.4290   55.4160 C   0  0  0  0  0  0  0  0  0  0  0  0
  -12.7340  -32.3780   54.8750 C   0  0  0  0  0  0  0  0  0  0  0  0
  -11.6020  -31.9460   55.7600 C   0  0  0  0  0  0  0  0  0  0  0  0
  -11.8690  -31.5650   57.1860 C   0  0  0  0  0  0  0  0  0  0  0  0
  -13.2670  -31.6160   57.7270 C   0  0  0  0  0  0  0  0  0  0  0  0
  -14.3990  -32.0480   56.8420 C   0  0  0  0  0  0  0  0  0  0  0  0
  -12.5500  -32.6410   53.8940 H   0  0  0  0  0  0  0  0  0  0  0  0
  -10.6400  -31.9110   55.3880 H   0  0  0  0  0  0  0  0  0  0  0  0
  -11.0910  -31.2680   57.7950 H   0  0  0  0  0  0  0  0  0  0  0  0
  -15.3610  -32.0830   57.2150 H   0  0  0  0  0  0  0  0  0  0  0  0
  -13.5340  -31.2350   59.1530 C   0  0  0  0  0  0  0  0  0  0  0  0
  -13.8000  -30.8540   60.5790 F   0  0  0  0  0  0  0  0  0  0  0  0
  -12.0580  -31.2010   59.4200 F   0  0  0  0  0  0  0  0  0  0  0  0
  -15.0090  -31.2700   58.8870 F   0  0  0  0  0  0  0  0  0  0  0  0
  -28.2620  -27.3150   55.2920 C   0  0  0  0  0  3  0  0  0  0  0  0
  -27.1790  -26.3480   55.6660 N   0  0  0  0  0  0  0  0  0  0  0  0
  -25.8580  -27.0270   55.4570 C   0  0  0  0  0  0  0  0  0  0  0  0
  -26.1250  -28.4140   54.9530 C   0  0  0  0  0  0  0  0  0  0  0  0
  -27.6110  -28.5920   54.8520 S   0  0  0  0  0  0  0  0  0  0  0  0
  -25.4120  -29.1230   54.7180 H   0  0  0  0  0  0  0  0  0  0  0  0
  -29.7370  -27.0510   55.3490 C   0  0  0  0  0  3  0  0  0  0  0  0
  -30.3880  -27.4870   54.6190 H   0  0  0  0  0  0  0  0  0  0  0  0
  -29.3350  -27.6750   54.5790 H   0  0  0  0  0  0  0  0  0  0  0  0
  -30.3020  -26.1770   56.4290 N   0  0  0  0  0  2  0  0  0  0  0  0
  -30.0170  -25.2000   56.4970 H   0  0  0  0  0  0  0  0  0  0  0  0
  -31.2870  -26.7390   57.4110 C   0  0  0  0  0  2  0  0  0  0  0  0
  -32.2890  -26.9510   57.1020 H   0  0  0  0  0  0  0  0  0  0  0  0
  -31.5860  -26.5500   56.4020 H   0  0  0  0  0  0  0  0  0  0  0  0
  -30.8670  -27.0040   58.8270 C   0  0  0  0  0  3  0  0  0  0  0  0
  -31.2230  -26.3760   59.6170 H   0  0  0  0  0  0  0  0  0  0  0  0
  -31.5220  -26.1870   58.6070 H   0  0  0  0  0  0  0  0  0  0  0  0
  -29.9480  -28.1490   59.1350 S   0  0  2  0  0  0  0  0  0  0  0  0
  -28.7650  -27.2890   58.8020 O   0  0  0  0  0  0  0  0  0  0  0  0
  -31.1310  -29.0080   59.4670 O   0  0  0  0  0  0  0  0  0  0  0  0
  -29.0300  -29.2930   59.4430 C   0  0  0  0  0  0  0  0  0  0  0  0
  -29.4330  -30.2330   59.7580 H   0  0  0  0  0  0  0  0  0  0  0  0
  -27.9710  -29.1710   59.3470 H   0  0  0  0  0  0  0  0  0  0  0  0
  -28.3740  -30.1100   59.6630 H   0  0  0  0  0  0  0  0  0  0  0  0
  1  2  1  0
  2 12  1  0
  2  3  2  0
  3 13  1  0
  4  5  1  0
  4  3  1  0
  6 14  1  0
  6  5  2  0
  7  6  1  0
  8  7  2  0
  8 10  1  0
  9  8  1  0
 10  4  2  0
 11 10  1  0
 11  1  2  0
 15  9  1  0
 16 11  1  0
 17  9  1  0
 17 18  1  0
 18 23  1  0
 19 18  2  0
 19 24  1  0
 20 19  1  0
 21 22  1  0
 21 20  2  0
 22 17  2  0
 25 21  1  0
 26 22  1  0
 27 20  1  0
 27 28  1  0
 28 29  1  0
 28 30  1  0
 28 31  1  0
 31 36  1  0
 32 31  2  0
 32 33  1  0
 33 34  2  0
 34 35  1  0
 34 39  1  0
 35 41  1  0
 36 40  1  0
 36 35  2  0
 37 32  1  0
 38 33  1  0
 41 43  1  0
 41 42  1  0
 44 41  1  0
 45 46  2  0
 47 46  1  0
 47  1  1  0
 48 47  2  0
 49 48  1  0
 49 45  1  0
 50 48  1  0
 51 54  1  0
 52 51  1  0
 53 51  1  0
 54 55  1  0
 57 56  1  0
 58 56  1  0
 59 62  1  0
 59 60  1  0
 61 59  1  0
 62 65  1  0
 62 64  2  0
 63 62  2  0
 65 68  1  0
 65 66  1  0
 67 65  1  0
M  END
>  <minimizedAffinity>  (291) 
-11.8933296

$$$$

     RDKit          3D

 55 58  0  0  0  0  0  0  0  0999 V2000
  -22.8060  -25.9280   55.9190 C   0  0  0  0  0  0  0  0  0  0  0  0
  -23.1280  -24.4840   56.1660 C   0  0  0  0  0  0  0  0  0  0  0  0
  -22.0210  -23.4970   56.3900 N   0  0  0  0  0  0  0  0  0  0  0  0
  -20.5920  -23.9530   56.3670 C   0  0  0  0  0  0  0  0  0  0  0  0
  -20.2700  -25.3970   56.1190 N   0  0  0  0  0  0  0  0  0  0  0  0
  -21.3770  -26.3850   55.8950 C   0  0  0  0  0  0  0  0  0  0  0  0
  -21.0550  -27.8280   55.6480 N   0  0  0  0  0  0  0  0  0  0  0  0
  -24.1110  -24.1700   56.1830 H   0  0  0  0  0  0  0  0  0  0  0  0
  -19.8310  -23.2740   56.5210 H   0  0  0  0  0  0  0  0  0  0  0  0
  -21.7810  -28.4760   55.5010 H   0  0  0  0  0  0  0  0  0  0  0  0
  -19.6270  -28.2850   55.6240 C   0  0  0  0  0  0  0  0  0  0  0  0
  -19.3050  -29.7470   55.7260 C   0  0  0  0  0  0  0  0  0  0  0  0
  -17.8760  -30.2030   55.7020 C   0  0  0  0  0  0  0  0  0  0  0  0
  -16.7690  -29.1980   55.5770 C   0  0  0  0  0  0  0  0  0  0  0  0
  -17.0910  -27.7370   55.4760 C   0  0  0  0  0  0  0  0  0  0  0  0
  -15.9850  -26.7320   55.3510 Cl  0  0  0  0  0  0  0  0  0  0  0  0
  -18.5200  -27.2800   55.4990 C   0  0  0  0  0  0  0  0  0  0  0  0
  -20.0660  -30.4380   55.8120 H   0  0  0  0  0  0  0  0  0  0  0  0
  -17.6550  -31.2090   55.7720 H   0  0  0  0  0  0  0  0  0  0  0  0
  -18.7420  -26.2750   55.4290 H   0  0  0  0  0  0  0  0  0  0  0  0
  -15.3410  -29.6550   55.5540 O   0  0  0  0  0  0  0  0  0  0  0  0
  -14.9850  -31.0300   56.0350 C   0  0  0  0  0  0  0  0  0  0  0  0
  -15.3910  -31.8910   55.5450 H   0  0  0  0  0  0  0  0  0  0  0  0
  -14.7310  -32.0120   56.3790 H   0  0  0  0  0  0  0  0  0  0  0  0
  -14.0600  -31.2000   57.2040 C   0  0  0  0  0  0  0  0  0  0  0  0
  -14.5680  -30.9900   58.5990 C   0  0  0  0  0  0  0  0  0  0  0  0
  -13.6430  -31.1600   59.7680 C   0  0  0  0  0  0  0  0  0  0  0  0
  -12.2100  -31.5390   59.5410 C   0  0  0  0  0  0  0  0  0  0  0  0
  -11.7010  -31.7490   58.1450 C   0  0  0  0  0  0  0  0  0  0  0  0
  -10.2680  -32.1280   57.9180 F   0  0  0  0  0  0  0  0  0  0  0  0
  -12.6270  -31.5790   56.9770 C   0  0  0  0  0  0  0  0  0  0  0  0
  -15.5540  -30.7290   58.7560 H   0  0  0  0  0  0  0  0  0  0  0  0
  -13.9930  -31.0150   60.7280 H   0  0  0  0  0  0  0  0  0  0  0  0
  -11.5730  -31.6560   60.3450 H   0  0  0  0  0  0  0  0  0  0  0  0
  -12.2770  -31.7240   56.0160 H   0  0  0  0  0  0  0  0  0  0  0  0
  -25.0190  -27.9030   55.4700 C   0  0  0  0  0  0  0  0  0  0  0  0
  -23.9130  -26.9150   55.6950 C   0  0  0  0  0  0  0  0  0  0  0  0
  -28.3100  -29.5820   54.0210 C   0  0  0  0  0  0  0  0  0  0  0  0
  -28.3390  -30.8650   54.7980 C   0  0  0  0  0  0  0  0  0  0  0  0
  -27.2620  -31.1600   55.7990 C   0  0  0  0  0  0  0  0  0  0  0  0
  -26.1550  -30.1730   56.0230 C   0  0  0  0  0  0  0  0  0  0  0  0
  -26.1260  -28.8900   55.2460 C   0  0  0  0  0  0  0  0  0  0  0  0
  -27.2030  -28.5940   54.2450 C   0  0  0  0  0  0  0  0  0  0  0  0
  -29.1010  -31.5440   54.6440 H   0  0  0  0  0  0  0  0  0  0  0  0
  -27.2830  -32.0430   56.3340 H   0  0  0  0  0  0  0  0  0  0  0  0
  -25.4140  -30.3760   56.7120 H   0  0  0  0  0  0  0  0  0  0  0  0
  -27.1830  -27.7120   53.7110 H   0  0  0  0  0  0  0  0  0  0  0  0
  -30.5290  -28.3860   53.3900 C   0  0  0  0  0  0  0  0  0  0  0  0
  -30.5930  -27.7810   54.7610 O   0  0  0  0  0  0  0  0  0  0  0  0
  -29.3870  -29.2860   53.0200 N   0  0  0  0  0  0  0  0  0  0  0  0
  -29.3450  -29.6840   52.1200 H   0  0  0  0  0  0  0  0  0  0  0  0
  -31.6060  -28.0910   52.3890 C   0  0  0  0  0  0  0  0  0  0  0  0
  -32.4200  -27.4480   52.6530 H   0  0  0  0  0  0  0  0  0  0  0  0
  -31.5600  -28.5220   51.4110 H   0  0  0  0  0  0  0  0  0  0  0  0
  -32.3740  -27.8800   51.6750 H   0  0  0  0  0  0  0  0  0  0  0  0
  1  2  2  0
  2  8  1  0
  2  3  1  0
  4  3  2  0
  4  9  1  0
  5  4  1  0
  6  1  1  0
  6  5  2  0
  7  6  1  0
 10  7  1  0
 11  7  1  0
 11 12  1  0
 12 18  1  0
 13 12  2  0
 13 19  1  0
 14 13  1  0
 15 17  1  0
 15 14  2  0
 16 15  1  0
 17 11  2  0
 20 17  1  0
 21 14  1  0
 21 22  1  0
 22 24  1  0
 22 25  1  0
 23 22  1  0
 25 26  1  0
 26 32  1  0
 26 27  2  0
 27 33  1  0
 28 27  1  0
 28 34  1  0
 29 28  2  0
 30 29  1  0
 31 25  2  0
 31 29  1  0
 35 31  1  0
 36 37  3  0
 37  1  1  0
 38 43  2  0
 38 39  1  0
 39 40  2  0
 40 41  1  0
 40 45  1  0
 41 46  1  0
 42 36  1  0
 42 41  2  0
 43 42  1  0
 44 39  1  0
 47 43  1  0
 48 49  2  0
 50 48  1  0
 50 38  1  0
 51 50  1  0
 52 53  1  0
 52 48  1  0
 54 52  1  0
 55 52  1  0
M  END
>  <minimizedAffinity>  (292) 
-10.0782499

$$$$

     RDKit          3D

 29 31  0  0  0  0  0  0  0  0999 V2000
  -26.5190  -26.4750   55.6850 O   0  0  0  0  0  0  0  0  0  0  0  0
  -25.0550  -26.1640   55.7900 C   0  0  0  0  0  0  0  0  0  0  0  0
  -24.4610  -24.8370   56.1580 N   0  0  0  0  0  0  0  0  0  0  0  0
  -22.9670  -24.9790   56.1420 C   0  0  0  0  0  0  0  0  0  0  0  0
  -21.8630  -24.0030   56.4220 C   0  0  0  0  0  0  0  0  0  0  0  0
  -20.4320  -24.4410   56.3250 C   0  0  0  0  0  0  0  0  0  0  0  0
  -20.1040  -25.8560   55.9480 C   0  0  0  0  0  0  0  0  0  0  0  0
  -18.6730  -26.2940   55.8510 I   0  0  0  0  0  0  0  0  0  0  0  0
  -21.2080  -26.8320   55.6680 C   0  0  0  0  0  0  0  0  0  0  0  0
  -22.6390  -26.3940   55.7650 C   0  0  0  0  0  0  0  0  0  0  0  0
  -23.9310  -27.1270   55.5470 C   0  0  0  0  0  0  0  0  0  0  0  0
  -24.0710  -28.5670   55.1560 C   0  0  0  0  0  0  0  0  0  0  0  0
  -24.9610  -24.0180   56.3710 H   0  0  0  0  0  0  0  0  0  0  0  0
  -22.0880  -23.0300   56.6810 H   0  0  0  0  0  0  0  0  0  0  0  0
  -19.6720  -23.7700   56.5180 H   0  0  0  0  0  0  0  0  0  0  0  0
  -20.9830  -27.8050   55.4080 H   0  0  0  0  0  0  0  0  0  0  0  0
  -23.2310  -29.1480   55.0120 H   0  0  0  0  0  0  0  0  0  0  0  0
  -25.4350  -29.1650   54.9750 C   0  0  0  0  0  0  0  0  0  0  0  0
  -26.1090  -29.1020   53.6360 C   0  0  0  0  0  0  0  0  0  0  0  0
  -27.4730  -29.7010   53.4550 C   0  0  0  0  0  0  0  0  0  0  0  0
  -28.1480  -29.6380   52.1160 Br  0  0  0  0  0  0  0  0  0  0  0  0
  -28.1620  -30.3620   54.6110 C   0  0  0  0  0  0  0  0  0  0  0  0
  -27.4870  -30.4250   55.9500 C   0  0  0  0  0  0  0  0  0  0  0  0
  -28.1770  -31.0860   57.1070 Br  0  0  0  0  0  0  0  0  0  0  0  0
  -26.1240  -29.8270   56.1320 C   0  0  0  0  0  0  0  0  0  0  0  0
  -25.6350  -28.6470   52.8400 H   0  0  0  0  0  0  0  0  0  0  0  0
  -25.6600  -29.8700   57.0520 H   0  0  0  0  0  0  0  0  0  0  0  0
  -29.5260  -30.9600   54.4290 O   0  0  0  0  0  0  0  0  0  0  0  0
  -29.9470  -30.9200   53.5930 H   0  0  0  0  0  0  0  0  0  0  0  0
  1  2  2  0
  2  3  1  0
  3 13  1  0
  4  3  1  0
  4  5  1  0
  5 14  1  0
  6  5  2  0
  6 15  1  0
  7  6  1  0
  8  7  1  0
  9 10  1  0
  9  7  2  0
 10  4  2  0
 11 10  1  0
 11  2  1  0
 12 11  2  0
 16  9  1  0
 17 12  1  0
 18 12  1  0
 18 25  1  0
 19 18  2  0
 20 19  1  0
 20 22  2  0
 21 20  1  0
 22 23  1  0
 23 25  2  0
 23 24  1  0
 25 27  1  0
 26 19  1  0
 28 22  1  0
 29 28  1  0
M  END
>  <minimizedAffinity>  (293) 
-8.25342941

$$$$

     RDKit          3D

 53 51  0  0  1  0  0  0  0  0999 V2000
  -17.4050  -32.2250   55.6840 C   0  0  0  0  0  3  0  0  0  0  0  0
  -18.0120  -33.5710   55.4170 N   0  0  0  0  0  0  0  0  0  0  0  0
  -19.2770  -33.3620   54.6400 C   0  0  0  0  0  0  0  0  0  0  0  0
  -19.4530  -31.8870   54.4270 N   0  0  0  0  0  0  0  0  0  0  0  0
  -18.2960  -31.1840   55.0720 C   0  0  0  0  0  0  0  0  0  0  0  0
  -19.9150  -34.1030   54.3100 H   0  0  0  0  0  0  0  0  0  0  0  0
  -20.5870  -31.2310   53.6960 C   0  0  0  0  0  1  0  0  0  0  0  0
  -20.3230  -30.0530   52.8060 C   0  0  0  0  0  2  0  0  0  0  0  0
  -21.4570  -29.3960   52.0750 C   0  0  0  0  0  2  0  0  0  0  0  0
  -22.8540  -29.9180   52.2350 N   0  0  0  0  0  2  0  0  0  0  0  0
  -23.1180  -31.0960   53.1250 C   0  0  0  0  0  3  0  0  0  0  0  0
  -21.9840  -31.7520   53.8550 C   0  0  0  0  0  2  0  0  0  0  0  0
  -21.3950  -30.7620   53.1750 H   0  0  0  0  0  0  0  0  0  0  0  0
  -19.3270  -29.6800   52.6920 H   0  0  0  0  0  0  0  0  0  0  0  0
  -20.1350  -29.2120   52.1710 H   0  0  0  0  0  0  0  0  0  0  0  0
  -21.2690  -28.5560   51.4400 H   0  0  0  0  0  0  0  0  0  0  0  0
  -22.2660  -28.9280   51.5540 H   0  0  0  0  0  0  0  0  0  0  0  0
  -23.6250  -29.4710   51.7380 H   0  0  0  0  0  0  0  0  0  0  0  0
  -24.1140  -31.4680   53.2390 H   0  0  0  0  0  0  0  0  0  0  0  0
  -23.3050  -31.9370   53.7600 H   0  0  0  0  0  0  0  0  0  0  0  0
  -22.1720  -32.5930   54.4910 H   0  0  0  0  0  0  0  0  0  0  0  0
  -21.1750  -32.2210   54.3770 H   0  0  0  0  0  0  0  0  0  0  0  0
  -12.3090  -31.1860   58.6770 F   0  0  0  0  0  0  0  0  0  0  0  0
  -13.5830  -31.4450   57.9290 C   0  0  0  0  0  0  0  0  0  0  0  0
  -14.8320  -31.8060   58.6770 C   0  0  0  0  0  0  0  0  0  0  0  0
  -16.1060  -32.0660   57.9290 C   0  0  0  0  0  0  0  0  0  0  0  0
  -16.1310  -31.9650   56.4320 C   0  0  0  0  0  0  0  0  0  0  0  0
  -14.8820  -31.6040   55.6840 C   0  0  0  0  0  0  0  0  0  0  0  0
  -13.6080  -31.3450   56.4320 C   0  0  0  0  0  0  0  0  0  0  0  0
  -14.8150  -31.8760   59.7070 H   0  0  0  0  0  0  0  0  0  0  0  0
  -16.9660  -32.3140   58.4440 H   0  0  0  0  0  0  0  0  0  0  0  0
  -14.8990  -31.5350   54.6540 H   0  0  0  0  0  0  0  0  0  0  0  0
  -12.7490  -31.0960   55.9170 H   0  0  0  0  0  0  0  0  0  0  0  0
  -18.0690  -29.7020   55.1010 C   0  0  0  0  0  3  0  0  0  0  0  0
  -16.9300  -29.1020   54.3310 C   0  0  0  0  0  0  0  0  0  0  0  0
  -16.7030  -27.6200   54.3600 C   0  0  0  0  0  0  0  0  0  0  0  0
  -17.6150  -26.7370   55.1590 N   0  0  0  0  0  0  0  0  0  0  0  0
  -18.7540  -27.3370   55.9290 C   0  0  0  0  0  0  0  0  0  0  0  0
  -18.9810  -28.8190   55.9000 N   0  0  0  0  0  0  0  0  0  0  0  0
  -16.3020  -29.7100   53.7810 H   0  0  0  0  0  0  0  0  0  0  0  0
  -15.9190  -27.2080   53.8300 H   0  0  0  0  0  0  0  0  0  0  0  0
  -19.6670  -26.4540   56.7280 O   0  0  0  0  0  0  0  0  0  0  0  0
  -21.1100  -26.3210   56.3400 C   0  0  0  0  0  0  0  0  0  0  0  0
  -21.8080  -25.0020   56.4870 C   0  0  0  0  0  0  0  0  0  0  0  0
  -23.2500  -24.8690   56.1000 C   0  0  0  0  0  0  0  0  0  0  0  0
  -23.9960  -26.0550   55.5650 C   0  0  0  0  0  0  0  0  0  0  0  0
  -25.4380  -25.9230   55.1770 F   0  0  0  0  0  0  0  0  0  0  0  0
  -23.2980  -27.3750   55.4170 C   0  0  0  0  0  0  0  0  0  0  0  0
  -24.0440  -28.5620   54.8820 F   0  0  0  0  0  0  0  0  0  0  0  0
  -21.8550  -27.5080   55.8050 C   0  0  0  0  0  0  0  0  0  0  0  0
  -21.2950  -24.1860   56.8560 H   0  0  0  0  0  0  0  0  0  0  0  0
  -23.7310  -23.9610   56.2010 H   0  0  0  0  0  0  0  0  0  0  0  0
  -21.3750  -28.4160   55.7030 H   0  0  0  0  0  0  0  0  0  0  0  0
  1 27  1  0
  2  1  1  0
  3  2  2  0
  4  3  1  0
  4  5  2  0
  5  1  1  0
  6  3  1  0
 10 11  1  0
 11 19  1  0
 11 20  1  0
 12 22  1  0
 12 21  1  0
 13  7  1  0
 14  8  1  0
 15  8  1  0
 16  9  1  0
 17  9  1  0
 18 10  1  0
 24 25  1  0
 24 23  1  0
 25 30  1  0
 26 31  1  0
 26 25  2  0
 27 26  1  0
 28 29  1  0
 28 27  2  0
 29 24  2  0
 32 28  1  0
 33 29  1  0
 34  5  1  0
 34 39  1  0
 35 36  2  0
 35 34  1  0
 36 37  1  0
 37 38  2  0
 38 42  1  0
 39 38  2  0
 40 35  1  0
 41 36  1  0
 43 44  1  0
 43 42  1  0
 44 51  1  0
 45 52  1  0
 45 44  2  0
 46 45  1  0
 47 46  1  0
 48 46  2  0
 48 50  1  0
 49 48  1  0
 50 43  2  0
 53 50  1  0
M  END
>  <minimizedAffinity>  (294) 
-9.19735432

$$$$

     RDKit          3D

 33 34  0  0  0  0  0  0  0  0999 V2000
  -21.7020  -29.5280   54.8770 O   0  0  0  0  0  0  0  0  0  0  0  0
  -20.2950  -29.0680   55.1190 C   0  0  0  0  0  0  0  0  0  0  0  0
  -19.0550  -29.8920   54.9360 N   0  0  0  0  0  0  0  0  0  0  0  0
  -17.8740  -29.0360   55.2910 C   0  0  0  0  0  0  0  0  0  0  0  0
  -16.4000  -29.3130   55.3000 C   0  0  0  0  0  0  0  0  0  0  0  0
  -15.4380  -28.2390   55.7120 C   0  0  0  0  0  0  0  0  0  0  0  0
  -15.9490  -26.8880   56.1150 C   0  0  0  0  0  0  0  0  0  0  0  0
  -17.4230  -26.6110   56.1060 C   0  0  0  0  0  0  0  0  0  0  0  0
  -18.3860  -27.6850   55.6940 C   0  0  0  0  0  0  0  0  0  0  0  0
  -19.8820  -27.7040   55.5880 C   0  0  0  0  0  0  0  0  0  0  0  0
  -20.8030  -26.5620   55.8960 C   0  0  0  0  0  0  0  0  0  0  0  0
  -20.3900  -25.1980   56.3640 C   0  0  0  0  0  3  0  0  0  0  0  0
  -21.6300  -24.3750   56.5480 C   0  0  0  0  0  2  0  0  0  0  0  0
  -22.8110  -25.2300   56.1920 C   0  0  0  0  0  3  0  0  0  0  0  0
  -24.2850  -24.9520   56.1840 C   0  0  0  0  0  0  0  0  0  0  0  0
  -25.2480  -26.0270   55.7720 C   0  0  0  0  0  0  0  0  0  0  0  0
  -24.7360  -27.3780   55.3690 C   0  0  0  0  0  0  0  0  0  0  0  0
  -23.2620  -27.6550   55.3780 C   0  0  0  0  0  0  0  0  0  0  0  0
  -22.2990  -26.5810   55.7900 C   0  0  0  0  0  0  0  0  0  0  0  0
  -19.0210  -30.8280   54.6350 H   0  0  0  0  0  0  0  0  0  0  0  0
  -16.0490  -30.2430   55.0230 H   0  0  0  0  0  0  0  0  0  0  0  0
  -14.4230  -28.4300   55.7180 H   0  0  0  0  0  0  0  0  0  0  0  0
  -15.2860  -26.1490   56.3980 H   0  0  0  0  0  0  0  0  0  0  0  0
  -17.7750  -25.6810   56.3830 H   0  0  0  0  0  0  0  0  0  0  0  0
  -19.3870  -24.8700   56.5380 H   0  0  0  0  0  0  0  0  0  0  0  0
  -20.2590  -24.1900   56.6990 H   0  0  0  0  0  0  0  0  0  0  0  0
  -21.6670  -23.3560   56.8750 H   0  0  0  0  0  0  0  0  0  0  0  0
  -22.5980  -23.9250   56.6280 H   0  0  0  0  0  0  0  0  0  0  0  0
  -24.6370  -24.0230   56.4610 H   0  0  0  0  0  0  0  0  0  0  0  0
  -25.3990  -28.1170   55.0860 H   0  0  0  0  0  0  0  0  0  0  0  0
  -22.9100  -28.5850   55.1010 H   0  0  0  0  0  0  0  0  0  0  0  0
  -26.7220  -25.7490   55.7630 O   0  0  0  0  0  0  0  0  0  0  0  0
  -27.0410  -24.9050   56.0150 H   0  0  0  0  0  0  0  0  0  0  0  0
  1  2  2  0
  2 10  1  0
  3  2  1  0
  3  4  1  0
  4  5  2  0
  4  9  1  0
  5  6  1  0
  6 22  1  0
  6  7  2  0
  7 23  1  0
  8  7  1  0
  8 24  1  0
  9  8  2  0
 10  9  1  0
 10 11  2  0
 11 12  1  0
 12 25  1  0
 12 26  1  0
 13 28  1  0
 13 27  1  0
 15 14  1  0
 15 29  1  0
 16 15  2  0
 17 18  2  0
 17 16  1  0
 18 19  1  0
 19 11  1  0
 19 14  2  0
 20  3  1  0
 21  5  1  0
 30 17  1  0
 31 18  1  0
 32 16  1  0
 32 33  1  0
M  END
>  <minimizedAffinity>  (295) 
-10.0129128

$$$$

     RDKit          3D

 52 55  0  0  0  0  0  0  0  0999 V2000
  -18.9570  -26.3980   55.8750 C   0  0  0  0  0  0  0  0  0  0  0  0
  -17.5900  -26.0770   55.3470 C   0  0  0  0  0  0  0  0  0  0  0  0
  -16.6620  -27.1850   54.9450 C   0  0  0  0  0  0  0  0  0  0  0  0
  -17.1010  -28.6140   55.0710 C   0  0  0  0  0  0  0  0  0  0  0  0
  -18.4680  -28.9340   55.5990 C   0  0  0  0  0  0  0  0  0  0  0  0
  -19.3960  -27.8260   56.0000 C   0  0  0  0  0  0  0  0  0  0  0  0
  -17.2880  -25.0940   55.2610 H   0  0  0  0  0  0  0  0  0  0  0  0
  -15.7220  -26.9640   54.5830 H   0  0  0  0  0  0  0  0  0  0  0  0
  -18.7700  -29.9180   55.6850 H   0  0  0  0  0  0  0  0  0  0  0  0
  -20.3370  -28.0470   56.3630 H   0  0  0  0  0  0  0  0  0  0  0  0
  -16.1730  -29.7210   54.6700 N   0  0  0  0  0  0  0  0  0  0  0  0
  -15.3500  -30.4240   55.7080 C   0  0  0  0  0  0  0  0  0  0  0  0
  -15.4550  -30.0190   57.1490 O   0  0  0  0  0  0  0  0  0  0  0  0
  -14.4220  -31.5320   55.3070 N   0  0  0  0  0  0  0  0  0  0  0  0
  -16.1040  -29.9880   53.7240 H   0  0  0  0  0  0  0  0  0  0  0  0
  -14.3530  -31.7980   54.3610 H   0  0  0  0  0  0  0  0  0  0  0  0
  -13.5990  -32.2350   56.3450 C   0  0  0  0  0  0  0  0  0  0  0  0
  -12.3960  -31.5590   56.9320 C   0  0  0  0  0  0  0  0  0  0  0  0
  -11.5730  -32.2620   57.9710 C   0  0  0  0  0  0  0  0  0  0  0  0
  -11.9530  -33.6400   58.4230 C   0  0  0  0  0  0  0  0  0  0  0  0
  -13.1570  -34.3160   57.8360 C   0  0  0  0  0  0  0  0  0  0  0  0
  -13.9800  -33.6140   56.7970 C   0  0  0  0  0  0  0  0  0  0  0  0
  -15.1840  -34.2900   56.2100 F   0  0  0  0  0  0  0  0  0  0  0  0
  -12.1340  -30.6100   56.6210 H   0  0  0  0  0  0  0  0  0  0  0  0
  -11.3870  -34.1240   59.1370 H   0  0  0  0  0  0  0  0  0  0  0  0
  -13.4190  -35.2650   58.1470 H   0  0  0  0  0  0  0  0  0  0  0  0
  -10.3690  -31.5860   58.5580 C   0  0  0  0  0  0  0  0  0  0  0  0
   -9.1660  -30.9100   59.1440 F   0  0  0  0  0  0  0  0  0  0  0  0
  -11.2520  -30.8550   59.5260 F   0  0  0  0  0  0  0  0  0  0  0  0
   -9.4870  -32.3160   57.5890 F   0  0  0  0  0  0  0  0  0  0  0  0
  -19.8850  -25.2900   56.2760 O   0  0  0  0  0  0  0  0  0  0  0  0
  -26.6520  -30.0060   54.4060 C   0  0  0  0  0  0  0  0  0  0  0  0
  -25.2600  -30.5440   54.2570 O   0  0  0  0  0  0  0  0  0  0  0  0
  -26.8650  -28.6040   54.8960 N   0  0  0  0  0  0  0  0  0  0  0  0
  -25.6870  -27.7410   55.2360 C   0  0  0  0  0  0  0  0  0  0  0  0
  -25.7450  -26.3270   55.7350 N   0  0  0  0  0  0  0  0  0  0  0  0
  -24.3370  -25.8530   55.9450 C   0  0  0  0  0  0  0  0  0  0  0  0
  -23.7800  -24.5450   56.4240 C   0  0  0  0  0  0  0  0  0  0  0  0
  -22.2960  -24.3570   56.5350 C   0  0  0  0  0  0  0  0  0  0  0  0
  -21.3690  -25.4770   56.1660 C   0  0  0  0  0  0  0  0  0  0  0  0
  -21.9260  -26.7850   55.6870 C   0  0  0  0  0  0  0  0  0  0  0  0
  -23.4100  -26.9730   55.5760 C   0  0  0  0  0  0  0  0  0  0  0  0
  -24.2440  -28.1400   55.1380 S   0  0  0  0  0  0  0  0  0  0  0  0
  -27.7800  -28.2510   54.9930 H   0  0  0  0  0  0  0  0  0  0  0  0
  -24.4180  -23.7740   56.6780 H   0  0  0  0  0  0  0  0  0  0  0  0
  -21.9130  -23.4580   56.8650 H   0  0  0  0  0  0  0  0  0  0  0  0
  -21.2880  -27.5560   55.4330 H   0  0  0  0  0  0  0  0  0  0  0  0
  -27.8300  -30.8690   54.0650 O   0  0  0  0  0  0  0  0  0  0  0  0
  -29.0240  -30.2720   53.3820 C   0  0  0  0  0  0  0  0  0  0  0  0
  -29.0360  -29.2300   53.1370 H   0  0  0  0  0  0  0  0  0  0  0  0
  -29.8650  -30.8880   53.1390 H   0  0  0  0  0  0  0  0  0  0  0  0
  -29.8770  -29.8460   52.8940 H   0  0  0  0  0  0  0  0  0  0  0  0
  1  6  1  0
  1 31  1  0
  2  1  2  0
  3  4  2  0
  3  2  1  0
  4  5  1  0
  5  9  1  0
  5  6  2  0
  6 10  1  0
  7  2  1  0
  8  3  1  0
 11  4  1  0
 11 12  1  0
 12 13  2  0
 14 12  1  0
 14 17  1  0
 15 11  1  0
 16 14  1  0
 17 22  2  0
 17 18  1  0
 18 19  2  0
 19 20  1  0
 19 27  1  0
 20 25  1  0
 21 26  1  0
 21 20  2  0
 22 21  1  0
 23 22  1  0
 24 18  1  0
 27 28  1  0
 27 29  1  0
 30 27  1  0
 32 34  1  0
 33 32  2  0
 34 44  1  0
 34 35  1  0
 35 36  2  0
 36 37  1  0
 37 38  1  0
 38 39  2  0
 38 45  1  0
 39 46  1  0
 40 31  1  0
 40 39  1  0
 41 40  2  0
 42 41  1  0
 42 37  2  0
 43 35  1  0
 43 42  1  0
 47 41  1  0
 48 32  1  0
 49 48  1  0
 50 49  1  0
 51 49  1  0
 52 49  1  0
M  END
>  <minimizedAffinity>  (296) 
-9.63328743

$$$$

     RDKit          3D

 43 45  0  0  1  0  0  0  0  0999 V2000
  -24.1250  -26.4140   55.7330 C   0  0  0  0  0  0  0  0  0  0  0  0
  -24.0740  -25.0910   56.4370 C   0  0  0  0  0  0  0  0  0  0  0  0
  -22.7550  -24.4180   56.6770 C   0  0  0  0  0  0  0  0  0  0  0  0
  -21.4860  -25.0700   56.2130 C   0  0  0  0  0  0  0  0  0  0  0  0
  -21.5360  -26.3930   55.5090 C   0  0  0  0  0  0  0  0  0  0  0  0
  -22.8560  -27.0650   55.2690 C   0  0  0  0  0  0  0  0  0  0  0  0
  -20.1300  -26.7910   55.1680 C   0  0  0  0  0  3  0  0  0  0  0  0
  -19.7160  -28.0460   54.4590 C   0  0  0  0  0  0  0  0  0  0  0  0
  -19.2110  -25.7130   55.6620 C   0  0  0  0  0  0  0  0  0  0  0  0
  -17.7170  -25.7010   55.5330 O   0  0  0  0  0  0  0  0  0  0  0  0
  -20.0490  -24.6500   56.3080 N   0  0  0  0  0  0  0  0  0  0  0  0
  -24.9470  -24.6420   56.7560 H   0  0  0  0  0  0  0  0  0  0  0  0
  -22.7200  -23.5080   57.1620 H   0  0  0  0  0  0  0  0  0  0  0  0
  -22.8900  -27.9760   54.7840 H   0  0  0  0  0  0  0  0  0  0  0  0
  -20.4300  -28.7280   54.1580 H   0  0  0  0  0  0  0  0  0  0  0  0
  -19.7150  -23.8210   56.7210 H   0  0  0  0  0  0  0  0  0  0  0  0
  -18.2650  -28.3090   54.1860 N   0  0  0  0  0  4  0  0  0  0  0  0
  -17.8090  -27.8380   53.4520 H   0  0  0  0  0  0  0  0  0  0  0  0
  -17.5090  -29.2910   55.0310 C   0  0  0  0  0  0  0  0  0  0  0  0
  -16.0680  -29.0410   55.3630 C   0  0  0  0  0  0  0  0  0  0  0  0
  -15.3120  -30.0230   56.2090 C   0  0  0  0  0  0  0  0  0  0  0  0
  -15.9980  -31.2540   56.7220 C   0  0  0  0  0  0  0  0  0  0  0  0
  -17.4380  -31.5040   56.3900 C   0  0  0  0  0  0  0  0  0  0  0  0
  -18.1940  -30.5220   55.5450 C   0  0  0  0  0  0  0  0  0  0  0  0
  -15.5950  -28.1940   55.0100 H   0  0  0  0  0  0  0  0  0  0  0  0
  -14.3210  -29.8510   56.4370 H   0  0  0  0  0  0  0  0  0  0  0  0
  -17.9100  -32.3510   56.7430 H   0  0  0  0  0  0  0  0  0  0  0  0
  -19.1860  -30.6940   55.3160 H   0  0  0  0  0  0  0  0  0  0  0  0
  -15.2420  -32.2370   57.5680 S   0  0  1  0  0  0  0  0  0  0  0  0
  -16.4830  -33.0650   57.7150 O   0  0  0  0  0  0  0  0  0  0  0  0
  -14.0010  -31.4080   57.4210 O   0  0  0  0  0  0  0  0  0  0  0  0
  -14.4870  -33.2190   58.4140 N   0  0  0  0  0  0  0  0  0  0  0  0
  -14.9610  -34.0400   58.7880 H   0  0  0  0  0  0  0  0  0  0  0  0
  -13.4990  -33.0640   58.6140 H   0  0  0  0  0  0  0  0  0  0  0  0
  -25.4440  -27.0860   55.4920 N   0  0  0  0  0  0  0  0  0  0  0  0
  -25.4860  -28.4870   54.9580 C   0  0  0  0  0  0  0  0  0  0  0  0
  -24.5740  -29.0070   54.7490 H   0  0  0  0  0  0  0  0  0  0  0  0
  -26.4270  -28.9660   54.7870 H   0  0  0  0  0  0  0  0  0  0  0  0
  -25.5150  -29.4870   54.5770 H   0  0  0  0  0  0  0  0  0  0  0  0
  -26.7210  -26.3570   55.7860 C   0  0  0  0  0  0  0  0  0  0  0  0
  -27.6630  -26.8360   55.6150 H   0  0  0  0  0  0  0  0  0  0  0  0
  -26.6920  -25.3570   56.1670 H   0  0  0  0  0  0  0  0  0  0  0  0
  -27.6330  -25.8370   55.9960 H   0  0  0  0  0  0  0  0  0  0  0  0
  1  2  1  0
  2  3  2  0
  2 12  1  0
  3 13  1  0
  4 11  1  0
  4  3  1  0
  5  4  2  0
  6  5  1  0
  6  1  2  0
  7  8  1  0
  7  5  1  0
  7  9  1  0
  9 11  1  0
 10  9  2  0
 11 16  1  0
 14  6  1  0
 15  8  1  0
 17  8  2  0
 17 19  1  0
 18 17  1  0
 19 20  2  0
 19 24  1  0
 20 21  1  0
 21 26  1  0
 21 22  2  0
 22 29  1  0
 23 22  1  0
 23 27  1  0
 24 23  2  0
 25 20  1  0
 28 24  1  0
 29 30  2  0
 29 32  1  0
 31 29  2  0
 32 34  1  0
 32 33  1  0
 35  1  1  0
 35 40  1  0
 36 35  1  0
 37 36  1  0
 38 36  1  0
 39 36  1  0
 40 43  1  0
 40 42  1  0
 41 40  1  0
M  END
>  <minimizedAffinity>  (297) 
-8.5492897

$$$$

     RDKit          3D

 36 37  0  0  0  0  0  0  0  0999 V2000
  -17.9880  -29.4070   55.4470 C   0  0  0  0  0  0  0  0  0  0  0  0
  -16.7000  -30.1600   55.5980 C   0  0  0  0  0  0  0  0  0  0  0  0
  -15.4010  -29.4140   55.6860 C   0  0  0  0  0  0  0  0  0  0  0  0
  -15.3910  -27.9150   55.6240 C   0  0  0  0  0  0  0  0  0  0  0  0
  -16.6800  -27.1620   55.4720 C   0  0  0  0  0  0  0  0  0  0  0  0
  -17.9780  -27.9080   55.3840 C   0  0  0  0  0  0  0  0  0  0  0  0
  -16.7060  -31.1910   55.6410 H   0  0  0  0  0  0  0  0  0  0  0  0
  -14.4980  -27.4020   55.6840 H   0  0  0  0  0  0  0  0  0  0  0  0
  -19.2870  -30.1520   55.3580 C   0  0  0  0  0  0  0  0  0  0  0  0
  -19.2940  -31.2220   55.4030 H   0  0  0  0  0  0  0  0  0  0  0  0
  -20.2060  -29.6150   55.2500 H   0  0  0  0  0  0  0  0  0  0  0  0
  -20.2130  -30.6840   55.2950 H   0  0  0  0  0  0  0  0  0  0  0  0
  -16.6700  -25.6640   55.4090 C   0  0  0  0  0  0  0  0  0  0  0  0
  -17.5890  -25.1260   55.3010 H   0  0  0  0  0  0  0  0  0  0  0  0
  -15.7440  -25.1320   55.4720 H   0  0  0  0  0  0  0  0  0  0  0  0
  -16.6630  -24.5940   55.3640 H   0  0  0  0  0  0  0  0  0  0  0  0
  -19.2670  -27.1550   55.2320 C   0  0  0  0  0  0  0  0  0  0  0  0
  -19.9880  -26.6520   56.4470 C   0  0  0  0  0  0  0  0  0  0  0  0
  -19.6570  -26.9840   54.2920 H   0  0  0  0  0  0  0  0  0  0  0  0
  -19.5980  -26.8230   57.3870 H   0  0  0  0  0  0  0  0  0  0  0  0
  -21.2770  -25.8990   56.2960 C   0  0  0  0  0  0  0  0  0  0  0  0
  -21.3070  -24.4140   56.5050 C   0  0  0  0  0  0  0  0  0  0  0  0
  -22.5950  -23.6610   56.3540 N   0  0  0  0  0  0  0  0  0  0  0  0
  -23.8540  -24.3930   55.9930 C   0  0  0  0  0  0  0  0  0  0  0  0
  -23.8240  -25.8780   55.7840 C   0  0  0  0  0  0  0  0  0  0  0  0
  -22.5350  -26.6310   55.9350 C   0  0  0  0  0  0  0  0  0  0  0  0
  -20.4410  -23.9100   56.7530 H   0  0  0  0  0  0  0  0  0  0  0  0
  -24.7410  -23.8750   55.8890 H   0  0  0  0  0  0  0  0  0  0  0  0
  -22.5150  -27.6530   55.7910 H   0  0  0  0  0  0  0  0  0  0  0  0
  -25.0820  -26.6100   55.4240 C   0  0  0  0  0  0  0  0  0  0  0  0
  -26.4180  -26.0050   55.7370 N   0  0  0  0  0  0  0  0  0  0  0  0
  -25.0050  -27.9480   54.7500 O   0  0  0  0  0  0  0  0  0  0  0  0
  -26.4690  -25.1270   56.1790 H   0  0  0  0  0  0  0  0  0  0  0  0
  -27.2450  -26.4850   55.5010 H   0  0  0  0  0  0  0  0  0  0  0  0
  -14.1130  -30.1670   55.8380 O   0  0  0  0  0  0  0  0  0  0  0  0
  -13.3020  -29.7010   55.8930 H   0  0  0  0  0  0  0  0  0  0  0  0
  1  2  1  0
  2  7  1  0
  2  3  2  0
  3 35  1  0
  4  8  1  0
  4  3  1  0
  5  4  2  0
  6  1  2  0
  6  5  1  0
  9 10  1  0
  9  1  1  0
 11  9  1  0
 12  9  1  0
 13  5  1  0
 13 15  1  0
 14 13  1  0
 16 13  1  0
 17  6  1  0
 17 18  2  0
 18 20  1  0
 19 17  1  0
 21 18  1  0
 21 22  1  0
 22 27  1  0
 23 22  2  0
 24 23  1  0
 25 26  1  0
 25 24  2  0
 26 21  2  0
 28 24  1  0
 29 26  1  0
 30 31  1  0
 30 25  1  0
 31 33  1  0
 32 30  2  0
 34 31  1  0
 35 36  1  0
M  END
>  <minimizedAffinity>  (298) 
-8.24580574

$$$$

     RDKit          3D

 32 31  0  0  0  0  0  0  0  0999 V2000
  -19.9470  -24.4530   56.2530 O   0  0  0  0  0  1  0  0  0  0  0  0
  -19.7900  -25.8980   55.8830 C   0  0  0  0  0  2  0  0  0  0  0  0
  -21.0040  -26.7510   55.6580 N   0  0  0  0  0  0  0  0  0  0  0  0
  -22.3740  -26.1590   55.8030 C   0  0  0  0  0  0  0  0  0  0  0  0
  -22.6860  -24.7370   56.1660 N   0  0  0  0  0  0  0  0  0  0  0  0
  -24.1780  -24.5830   56.1980 N   0  0  0  0  0  0  0  0  0  0  0  0
  -24.7870  -25.9090   55.8550 C   0  0  0  0  0  0  0  0  0  0  0  0
  -26.2140  -26.3570   55.7330 N   0  0  0  0  0  0  0  0  0  0  0  0
  -26.5260  -27.7770   55.3670 C   0  0  0  0  0  0  0  0  0  0  0  0
  -25.4110  -28.7510   55.1230 C   0  0  0  0  0  0  0  0  0  0  0  0
  -25.7230  -30.1720   54.7570 Br  0  0  0  0  0  0  0  0  0  0  0  0
  -23.9850  -28.3040   55.2450 C   0  0  0  0  0  0  0  0  0  0  0  0
  -23.6730  -26.8830   55.6110 C   0  0  0  0  0  0  0  0  0  0  0  0
  -20.9010  -27.7000   55.4150 H   0  0  0  0  0  0  0  0  0  0  0  0
  -24.6700  -23.7560   56.4080 H   0  0  0  0  0  0  0  0  0  0  0  0
  -23.2180  -28.9740   55.0770 H   0  0  0  0  0  0  0  0  0  0  0  0
  -27.9520  -28.2250   55.2450 C   0  0  0  0  0  0  0  0  0  0  0  0
  -28.8290  -28.6930   56.3690 C   0  0  0  0  0  0  0  0  0  0  0  0
  -30.1710  -29.0400   55.7970 C   0  0  0  0  0  0  0  0  0  0  0  0
  -30.1240  -28.7860   54.3190 C   0  0  0  0  0  0  0  0  0  0  0  0
  -28.7540  -28.2830   53.9780 O   0  0  0  0  0  0  0  0  0  0  0  0
  -28.5560  -28.7630   57.3620 H   0  0  0  0  0  0  0  0  0  0  0  0
  -30.9840  -29.3910   56.3260 H   0  0  0  0  0  0  0  0  0  0  0  0
  -30.9000  -28.9330   53.6530 H   0  0  0  0  0  0  0  0  0  0  0  0
  -18.4190  -26.4910   55.7380 C   0  0  0  0  0 15  0  0  0  0  0  0
  -16.9450  -26.4360   56.0100 C   0  0  0  0  0  2  0  0  0  0  0  0
  -17.5200  -27.5700   55.2150 C   0  0  0  0  0  3  0  0  0  0  0  0
  -17.4420  -26.9130   55.6350 H   0  0  0  0  0  0  0  0  0  0  0  0
  -16.1020  -25.9460   56.4490 H   0  0  0  0  0  0  0  0  0  0  0  0
  -16.1070  -27.0530   55.7640 H   0  0  0  0  0  0  0  0  0  0  0  0
  -17.3860  -28.4830   54.6730 H   0  0  0  0  0  0  0  0  0  0  0  0
  -18.5010  -27.8450   54.8880 H   0  0  0  0  0  0  0  0  0  0  0  0
  2  1  1  0
  3  4  1  0
  3  2  1  0
  4  5  2  0
  5  6  1  0
  6 15  1  0
  7  6  1  0
  8  7  1  0
  9  8  2  0
 10 12  2  0
 10  9  1  0
 11 10  1  0
 12 13  1  0
 13  4  1  0
 13  7  2  0
 14  3  1  0
 16 12  1  0
 17  9  1  0
 17 18  2  0
 18 22  1  0
 19 23  1  0
 19 18  1  0
 20 19  2  0
 21 20  1  0
 21 17  1  0
 24 20  1  0
 26 29  1  0
 27 28  1  0
 30 26  1  0
 31 27  1  0
 32 27  1  0
M  END
>  <minimizedAffinity>  (299) 
-7.62883854

$$$$

     RDKit          3D

 50 53  0  0  0  0  0  0  0  0999 V2000
  -22.6560  -26.1150   55.8430 C   0  0  0  0  0  0  0  0  0  0  0  0
  -23.0790  -24.7000   56.1100 C   0  0  0  0  0  0  0  0  0  0  0  0
  -22.0460  -23.6490   56.3910 N   0  0  0  0  0  0  0  0  0  0  0  0
  -20.5910  -24.0130   56.4070 C   0  0  0  0  0  0  0  0  0  0  0  0
  -20.1680  -25.4270   56.1410 N   0  0  0  0  0  0  0  0  0  0  0  0
  -21.2010  -26.4780   55.8590 C   0  0  0  0  0  0  0  0  0  0  0  0
  -20.7780  -27.8920   55.5930 N   0  0  0  0  0  0  0  0  0  0  0  0
  -24.0800  -24.4500   56.0990 H   0  0  0  0  0  0  0  0  0  0  0  0
  -19.8810  -23.2890   56.6010 H   0  0  0  0  0  0  0  0  0  0  0  0
  -21.4550  -28.5820   55.4080 H   0  0  0  0  0  0  0  0  0  0  0  0
  -19.3230  -28.2550   55.6080 C   0  0  0  0  0  0  0  0  0  0  0  0
  -18.9100  -29.6970   55.6090 C   0  0  0  0  0  0  0  0  0  0  0  0
  -17.4540  -30.0610   55.6240 C   0  0  0  0  0  0  0  0  0  0  0  0
  -16.4120  -28.9820   55.6390 C   0  0  0  0  0  0  0  0  0  0  0  0
  -16.8250  -27.5400   55.6380 C   0  0  0  0  0  0  0  0  0  0  0  0
  -15.7830  -26.4610   55.6530 Cl  0  0  0  0  0  0  0  0  0  0  0  0
  -18.2810  -27.1770   55.6230 C   0  0  0  0  0  0  0  0  0  0  0  0
  -19.6270  -30.4400   55.5990 H   0  0  0  0  0  0  0  0  0  0  0  0
  -17.1700  -31.0530   55.6250 H   0  0  0  0  0  0  0  0  0  0  0  0
  -18.5650  -26.1850   55.6220 H   0  0  0  0  0  0  0  0  0  0  0  0
  -14.9570  -29.3450   55.6550 O   0  0  0  0  0  0  0  0  0  0  0  0
  -14.5390  -30.7560   55.9470 C   0  0  0  0  0  0  0  0  0  0  0  0
  -14.7780  -31.5380   55.2570 H   0  0  0  0  0  0  0  0  0  0  0  0
  -14.2410  -31.7620   56.1550 H   0  0  0  0  0  0  0  0  0  0  0  0
  -13.7870  -31.0700   57.2060 C   0  0  0  0  0  0  0  0  0  0  0  0
  -14.4540  -30.9040   58.5390 C   0  0  0  0  0  0  0  0  0  0  0  0
  -13.7010  -31.2180   59.7980 C   0  0  0  0  0  0  0  0  0  0  0  0
  -12.2820  -31.6980   59.7240 C   0  0  0  0  0  0  0  0  0  0  0  0
  -11.6150  -31.8650   58.3900 C   0  0  0  0  0  0  0  0  0  0  0  0
  -10.1960  -32.3450   58.3160 F   0  0  0  0  0  0  0  0  0  0  0  0
  -12.3680  -31.5500   57.1310 C   0  0  0  0  0  0  0  0  0  0  0  0
  -15.4290  -30.5740   58.5910 H   0  0  0  0  0  0  0  0  0  0  0  0
  -14.1600  -31.1040   60.7150 H   0  0  0  0  0  0  0  0  0  0  0  0
  -11.7640  -31.9140   60.5900 H   0  0  0  0  0  0  0  0  0  0  0  0
  -11.9090  -31.6650   56.2140 H   0  0  0  0  0  0  0  0  0  0  0  0
  -24.7210  -28.2170   55.2800 C   0  0  0  0  0  0  0  0  0  0  0  0
  -23.6880  -27.1660   55.5610 C   0  0  0  0  0  0  0  0  0  0  0  0
  -27.8180  -31.3700   54.4340 C   0  0  0  0  0  0  0  0  0  0  0  0
  -27.3720  -31.1150   55.8430 C   0  0  0  0  0  0  0  0  0  0  0  0
  -26.3400  -30.0640   56.1250 C   0  0  0  0  0  0  0  0  0  0  0  0
  -25.7530  -29.2680   54.9980 C   0  0  0  0  0  0  0  0  0  0  0  0
  -26.1990  -29.5220   53.5880 C   0  0  0  0  0  0  0  0  0  0  0  0
  -27.2320  -30.5730   53.3070 C   0  0  0  0  0  0  0  0  0  0  0  0
  -27.7750  -31.6640   56.6190 H   0  0  0  0  0  0  0  0  0  0  0  0
  -26.0330  -29.8900   57.0950 H   0  0  0  0  0  0  0  0  0  0  0  0
  -25.7960  -28.9740   52.8120 H   0  0  0  0  0  0  0  0  0  0  0  0
  -27.5390  -30.7480   52.3370 H   0  0  0  0  0  0  0  0  0  0  0  0
  -28.8510  -32.4210   54.1520 N   0  0  0  0  0  0  0  0  0  0  0  0
  -29.2350  -32.9440   54.8930 H   0  0  0  0  0  0  0  0  0  0  0  0
  -29.1430  -32.5870   53.2270 H   0  0  0  0  0  0  0  0  0  0  0  0
  1  6  1  0
  1  2  2  0
  2  3  1  0
  3  4  2  0
  4  9  1  0
  5  4  1  0
  6  5  2  0
  7 11  1  0
  7  6  1  0
  8  2  1  0
 10  7  1  0
 11 12  2  0
 11 17  1  0
 12 13  1  0
 13 19  1  0
 13 14  2  0
 14 21  1  0
 15 14  1  0
 15 16  1  0
 17 15  2  0
 18 12  1  0
 20 17  1  0
 21 22  1  0
 22 24  1  0
 22 25  1  0
 23 22  1  0
 25 26  1  0
 26 32  1  0
 26 27  2  0
 27 33  1  0
 28 27  1  0
 28 34  1  0
 29 28  2  0
 30 29  1  0
 31 25  2  0
 31 29  1  0
 35 31  1  0
 36 37  3  0
 37  1  1  0
 38 39  1  0
 39 40  2  0
 39 44  1  0
 40 45  1  0
 41 36  1  0
 41 40  1  0
 42 41  2  0
 43 42  1  0
 43 38  2  0
 46 42  1  0
 47 43  1  0
 48 38  1  0
 48 49  1  0
 50 48  1  0
M  END
>  <minimizedAffinity>  (300) 
-10.1664991

$$$$

     RDKit          3D

 34 37  0  0  0  0  0  0  0  0999 V2000
  -19.4840  -27.1810   55.7050 C   0  0  0  0  0  0  0  0  0  0  0  0
  -19.8270  -25.9110   56.4250 N   0  0  0  0  0  0  0  0  0  0  0  0
  -21.2650  -25.5920   56.1400 N   0  0  0  0  0  0  0  0  0  0  0  0
  -22.1490  -24.4620   56.5800 C   0  0  0  0  0  0  0  0  0  0  0  0
  -23.5770  -24.4060   56.1250 C   0  0  0  0  0  0  0  0  0  0  0  0
  -24.1210  -25.4790   55.2290 C   0  0  0  0  0  0  0  0  0  0  0  0
  -23.2380  -26.6080   54.7880 C   0  0  0  0  0  0  0  0  0  0  0  0
  -21.8100  -26.6640   55.2440 C   0  0  0  0  0  0  0  0  0  0  0  0
  -20.7080  -27.6470   54.9750 C   0  0  0  0  0  0  0  0  0  0  0  0
  -21.7740  -23.7240   57.1970 H   0  0  0  0  0  0  0  0  0  0  0  0
  -24.1850  -23.6290   56.4280 H   0  0  0  0  0  0  0  0  0  0  0  0
  -25.1040  -25.4400   54.9160 H   0  0  0  0  0  0  0  0  0  0  0  0
  -23.6120  -27.3460   54.1720 H   0  0  0  0  0  0  0  0  0  0  0  0
  -14.1450  -29.9190   55.7380 F   0  0  0  0  0  0  0  0  0  0  0  0
  -15.4800  -29.2350   55.7300 C   0  0  0  0  0  0  0  0  0  0  0  0
  -15.5540  -27.7370   55.7250 C   0  0  0  0  0  0  0  0  0  0  0  0
  -16.8890  -27.0520   55.7170 C   0  0  0  0  0  0  0  0  0  0  0  0
  -18.1490  -27.8660   55.7130 C   0  0  0  0  0  0  0  0  0  0  0  0
  -18.0740  -29.3640   55.7180 C   0  0  0  0  0  0  0  0  0  0  0  0
  -16.7400  -30.0480   55.7260 C   0  0  0  0  0  0  0  0  0  0  0  0
  -14.6870  -27.1770   55.7280 H   0  0  0  0  0  0  0  0  0  0  0  0
  -16.9400  -26.0210   55.7140 H   0  0  0  0  0  0  0  0  0  0  0  0
  -18.9420  -29.9240   55.7150 H   0  0  0  0  0  0  0  0  0  0  0  0
  -16.6890  -31.0790   55.7290 H   0  0  0  0  0  0  0  0  0  0  0  0
  -20.8140  -28.8780   54.1250 C   0  0  0  0  0  0  0  0  0  0  0  0
  -20.0920  -28.9490   52.8130 C   0  0  0  0  0  0  0  0  0  0  0  0
  -20.1980  -30.1800   51.9630 C   0  0  0  0  0  0  0  0  0  0  0  0
  -21.0260  -31.3420   52.4270 N   0  0  0  0  0  0  0  0  0  0  0  0
  -21.7480  -31.2730   53.7390 C   0  0  0  0  0  0  0  0  0  0  0  0
  -21.6420  -30.0400   54.5890 C   0  0  0  0  0  0  0  0  0  0  0  0
  -19.5230  -28.1490   52.4940 H   0  0  0  0  0  0  0  0  0  0  0  0
  -19.7010  -30.2280   51.0600 H   0  0  0  0  0  0  0  0  0  0  0  0
  -22.3170  -32.0710   54.0590 H   0  0  0  0  0  0  0  0  0  0  0  0
  -22.1390  -29.9920   55.4920 H   0  0  0  0  0  0  0  0  0  0  0  0
  1 18  1  0
  1  2  2  0
  3  2  1  0
  3  4  1  0
  4 10  1  0
  5 11  1  0
  5  4  2  0
  6  5  1  0
  7  6  2  0
  7  8  1  0
  8  3  1  0
  9  8  2  0
  9  1  1  0
 12  6  1  0
 13  7  1  0
 15 14  1  0
 16 21  1  0
 16 15  2  0
 17 16  1  0
 18 17  2  0
 18 19  1  0
 19 20  2  0
 20 24  1  0
 20 15  1  0
 22 17  1  0
 23 19  1  0
 25 30  1  0
 25  9  1  0
 26 25  2  0
 27 28  2  0
 27 26  1  0
 28 29  1  0
 29 33  1  0
 29 30  2  0
 30 34  1  0
 31 26  1  0
 32 27  1  0
M  END
>  <minimizedAffinity>  (301) 
-7.9554472

$$$$

     RDKit          3D

 50 53  0  0  0  0  0  0  0  0999 V2000
  -18.8110  -26.4300   55.8760 C   0  0  0  0  0  0  0  0  0  0  0  0
  -19.3600  -27.8140   56.0580 C   0  0  0  0  0  0  0  0  0  0  0  0
  -18.5300  -29.0060   55.6820 C   0  0  0  0  0  0  0  0  0  0  0  0
  -17.1510  -28.8130   55.1240 C   0  0  0  0  0  0  0  0  0  0  0  0
  -16.6020  -27.4290   54.9420 C   0  0  0  0  0  0  0  0  0  0  0  0
  -17.4320  -26.2380   55.3180 C   0  0  0  0  0  0  0  0  0  0  0  0
  -20.3080  -27.9470   56.4420 H   0  0  0  0  0  0  0  0  0  0  0  0
  -18.9070  -29.9580   55.8080 H   0  0  0  0  0  0  0  0  0  0  0  0
  -15.6530  -27.2970   54.5580 H   0  0  0  0  0  0  0  0  0  0  0  0
  -17.0540  -25.2860   55.1920 H   0  0  0  0  0  0  0  0  0  0  0  0
  -16.3210  -30.0050   54.7480 N   0  0  0  0  0  0  0  0  0  0  0  0
  -15.1510  -30.4030   55.5990 C   0  0  0  0  0  0  0  0  0  0  0  0
  -14.8120  -29.6090   56.8250 O   0  0  0  0  0  0  0  0  0  0  0  0
  -14.3210  -31.5940   55.2230 N   0  0  0  0  0  0  0  0  0  0  0  0
  -16.5440  -30.5260   53.9420 H   0  0  0  0  0  0  0  0  0  0  0  0
  -14.5440  -32.1150   54.4170 H   0  0  0  0  0  0  0  0  0  0  0  0
  -13.1520  -31.9920   56.0730 C   0  0  0  0  0  0  0  0  0  0  0  0
  -13.2860  -33.1190   57.0540 C   0  0  0  0  0  0  0  0  0  0  0  0
  -12.1170  -33.5170   57.9050 C   0  0  0  0  0  0  0  0  0  0  0  0
  -10.8120  -32.7880   57.7750 C   0  0  0  0  0  0  0  0  0  0  0  0
  -10.6770  -31.6610   56.7940 C   0  0  0  0  0  0  0  0  0  0  0  0
   -9.3730  -30.9320   56.6640 Br  0  0  0  0  0  0  0  0  0  0  0  0
  -11.8470  -31.2630   55.9430 C   0  0  0  0  0  0  0  0  0  0  0  0
  -14.1840  -33.6210   57.1430 H   0  0  0  0  0  0  0  0  0  0  0  0
  -12.2100  -34.2930   58.5800 H   0  0  0  0  0  0  0  0  0  0  0  0
  -10.0080  -33.0620   58.3600 H   0  0  0  0  0  0  0  0  0  0  0  0
  -11.7540  -30.4880   55.2680 H   0  0  0  0  0  0  0  0  0  0  0  0
  -19.6410  -25.2390   56.2520 O   0  0  0  0  0  0  0  0  0  0  0  0
  -28.2300  -27.4120   55.3450 C   0  0  0  0  0  0  0  0  0  0  0  0
  -28.3250  -26.0010   55.8470 O   0  0  0  0  0  0  0  0  0  0  0  0
  -26.8860  -28.0460   55.1400 N   0  0  0  0  0  0  0  0  0  0  0  0
  -25.6380  -27.2700   55.4360 C   0  0  0  0  0  0  0  0  0  0  0  0
  -24.2320  -27.7690   55.2790 N   0  0  0  0  0  0  0  0  0  0  0  0
  -23.3010  -26.6650   55.6870 C   0  0  0  0  0  0  0  0  0  0  0  0
  -21.8040  -26.5830   55.7390 C   0  0  0  0  0  0  0  0  0  0  0  0
  -21.1380  -25.3210   56.2000 C   0  0  0  0  0  0  0  0  0  0  0  0
  -21.9680  -24.1410   56.6080 C   0  0  0  0  0  0  0  0  0  0  0  0
  -23.4650  -24.2230   56.5560 C   0  0  0  0  0  0  0  0  0  0  0  0
  -24.1310  -25.4850   56.0960 C   0  0  0  0  0  0  0  0  0  0  0  0
  -25.5760  -25.8580   55.9400 N   0  0  0  0  0  0  0  0  0  0  0  0
  -26.8250  -28.9720   54.8100 H   0  0  0  0  0  0  0  0  0  0  0  0
  -21.2320  -27.3950   55.4580 H   0  0  0  0  0  0  0  0  0  0  0  0
  -21.5090  -23.2720   56.9250 H   0  0  0  0  0  0  0  0  0  0  0  0
  -24.0360  -23.4110   56.8370 H   0  0  0  0  0  0  0  0  0  0  0  0
  -26.3480  -25.2790   56.1350 H   0  0  0  0  0  0  0  0  0  0  0  0
  -29.4790  -28.1880   55.0490 O   0  0  0  0  0  0  0  0  0  0  0  0
  -30.1620  -28.0330   53.7230 C   0  0  0  0  0  0  0  0  0  0  0  0
  -29.7580  -27.3680   52.9870 H   0  0  0  0  0  0  0  0  0  0  0  0
  -31.0530  -28.5860   53.5110 H   0  0  0  0  0  0  0  0  0  0  0  0
  -30.6490  -27.9220   52.7760 H   0  0  0  0  0  0  0  0  0  0  0  0
  1  2  1  0
  1 28  1  0
  2  7  1  0
  3  8  1  0
  3  2  2  0
  4  3  1  0
  5  4  2  0
  5  6  1  0
  6  1  2  0
  9  5  1  0
 10  6  1  0
 11  4  1  0
 11 12  1  0
 12 13  2  0
 14 12  1  0
 14 17  1  0
 15 11  1  0
 16 14  1  0
 17 18  1  0
 18 24  1  0
 18 19  2  0
 19 25  1  0
 20 19  1  0
 20 26  1  0
 21 20  2  0
 22 21  1  0
 23 17  2  0
 23 21  1  0
 27 23  1  0
 29 30  2  0
 31 29  1  0
 31 32  1  0
 32 40  1  0
 33 32  2  0
 33 34  1  0
 34 35  2  0
 34 39  1  0
 35 36  1  0
 36 28  1  0
 36 37  2  0
 37 43  1  0
 38 37  1  0
 38 44  1  0
 39 38  2  0
 40 39  1  0
 40 45  1  0
 41 31  1  0
 42 35  1  0
 46 29  1  0
 47 46  1  0
 48 47  1  0
 49 47  1  0
 50 47  1  0
M  END
>  <minimizedAffinity>  (302) 
-9.67513943

$$$$

     RDKit          3D

 53 50  0  0  1  0  0  0  0  0999 V2000
  -17.3940  -32.1470   55.6740 C   0  0  0  0  0  3  0  0  0  0  0  0
  -17.9850  -33.4820   55.3240 N   0  0  0  0  0  0  0  0  0  0  0  0
  -19.2480  -33.2400   54.5540 C   0  0  0  0  0  0  0  0  0  0  0  0
  -19.4390  -31.7580   54.4280 N   0  0  0  0  0  0  0  0  0  0  0  0
  -18.2930  -31.0820   55.1200 C   0  0  0  0  0  0  0  0  0  0  0  0
  -19.8770  -33.9680   54.1770 H   0  0  0  0  0  0  0  0  0  0  0  0
  -20.5770  -31.0710   53.7310 C   0  0  0  0  0  1  0  0  0  0  0  0
  -20.2990  -30.0600   52.6600 C   0  0  0  0  0  2  0  0  0  0  0  0
  -21.4370  -29.3730   51.9630 C   0  0  0  0  0  2  0  0  0  0  0  0
  -22.8520  -29.6990   52.3380 N   0  0  0  0  0  1  0  0  0  0  0  0
  -23.1300  -30.7110   53.4100 C   0  0  0  0  0  2  0  0  0  0  0  0
  -21.9920  -31.3970   54.1060 C   0  0  0  0  0  2  0  0  0  0  0  0
  -21.3880  -30.5820   53.2340 H   0  0  0  0  0  0  0  0  0  0  0  0
  -19.2900  -29.8270   52.3920 H   0  0  0  0  0  0  0  0  0  0  0  0
  -20.1000  -29.3370   51.8950 H   0  0  0  0  0  0  0  0  0  0  0  0
  -21.2380  -28.6510   51.1990 H   0  0  0  0  0  0  0  0  0  0  0  0
  -22.2470  -28.8830   51.4660 H   0  0  0  0  0  0  0  0  0  0  0  0
  -23.6250  -29.2320   51.8640 H   0  0  0  0  0  0  0  0  0  0  0  0
  -24.1390  -30.9430   53.6770 H   0  0  0  0  0  0  0  0  0  0  0  0
  -23.3270  -31.4330   54.1740 H   0  0  0  0  0  0  0  0  0  0  0  0
  -22.1900  -32.1200   54.8710 H   0  0  0  0  0  0  0  0  0  0  0  0
  -21.1800  -31.8870   54.6030 H   0  0  0  0  0  0  0  0  0  0  0  0
  -12.3240  -31.2330   58.7510 F   0  0  0  0  0  0  0  0  0  0  0  0
  -13.5920  -31.4620   57.9810 C   0  0  0  0  0  0  0  0  0  0  0  0
  -13.5700  -31.4560   56.4820 C   0  0  0  0  0  0  0  0  0  0  0  0
  -14.8370  -31.6840   55.7130 C   0  0  0  0  0  0  0  0  0  0  0  0
  -16.1260  -31.9190   56.4430 C   0  0  0  0  0  0  0  0  0  0  0  0
  -16.1480  -31.9250   57.9430 C   0  0  0  0  0  0  0  0  0  0  0  0
  -14.8800  -31.6960   58.7120 C   0  0  0  0  0  0  0  0  0  0  0  0
  -12.6830  -31.2950   55.9790 H   0  0  0  0  0  0  0  0  0  0  0  0
  -14.8230  -31.6800   54.6800 H   0  0  0  0  0  0  0  0  0  0  0  0
  -17.0350  -32.0860   58.4460 H   0  0  0  0  0  0  0  0  0  0  0  0
  -14.8950  -31.7000   59.7440 H   0  0  0  0  0  0  0  0  0  0  0  0
  -18.0820  -29.6020   55.2370 C   0  0  0  0  0  0  0  0  0  0  0  0
  -16.8720  -28.9650   54.6230 C   0  0  0  0  0  0  0  0  0  0  0  0
  -16.6610  -27.4840   54.7410 C   0  0  0  0  0  3  0  0  0  0  0  0
  -17.6620  -26.6410   55.4740 N   0  0  0  0  0  0  0  0  0  0  0  0
  -18.8730  -27.2780   56.0880 C   0  0  0  0  0  0  0  0  0  0  0  0
  -19.0840  -28.7580   55.9700 N   0  0  0  0  0  0  0  0  0  0  0  0
  -16.1820  -29.5450   54.1190 H   0  0  0  0  0  0  0  0  0  0  0  0
  -15.8280  -27.0470   54.3190 H   0  0  0  0  0  0  0  0  0  0  0  0
  -19.8740  -26.4340   56.8200 O   0  0  0  0  0  0  0  0  0  0  0  0
  -21.1880  -26.1010   56.1770 C   0  0  0  0  0  0  0  0  0  0  0  0
  -21.8520  -24.7870   56.4630 C   0  0  0  0  0  0  0  0  0  0  0  0
  -23.1640  -24.4540   55.8190 C   0  0  0  0  0  0  0  0  0  0  0  0
  -23.8150  -25.4350   54.8900 C   0  0  0  0  0  0  0  0  0  0  0  0
  -23.1510  -26.7500   54.6030 C   0  0  0  0  0  0  0  0  0  0  0  0
  -21.8370  -27.0830   55.2470 C   0  0  0  0  0  0  0  0  0  0  0  0
  -21.4040  -24.1120   57.1020 H   0  0  0  0  0  0  0  0  0  0  0  0
  -23.6210  -23.5490   56.0160 H   0  0  0  0  0  0  0  0  0  0  0  0
  -24.7170  -25.2060   54.4470 H   0  0  0  0  0  0  0  0  0  0  0  0
  -23.5980  -27.4250   53.9640 H   0  0  0  0  0  0  0  0  0  0  0  0
  -21.3810  -27.9880   55.0500 H   0  0  0  0  0  0  0  0  0  0  0  0
  1 27  1  0
  2  1  1  0
  3  2  2  0
  4  3  1  0
  4  5  2  0
  5 34  1  0
  5  1  1  0
  6  3  1  0
 11 19  1  0
 11 20  1  0
 12 22  1  0
 12 21  1  0
 13  7  1  0
 14  8  1  0
 15  8  1  0
 16  9  1  0
 17  9  1  0
 18 10  1  0
 24 29  1  0
 24 23  1  0
 25 24  2  0
 26 27  2  0
 26 25  1  0
 27 28  1  0
 28 32  1  0
 28 29  2  0
 29 33  1  0
 30 25  1  0
 31 26  1  0
 34 39  1  0
 35 36  1  0
 35 34  2  0
 36 37  1  0
 37 38  2  0
 38 42  1  0
 39 38  2  0
 40 35  1  0
 41 36  1  0
 43 44  1  0
 43 42  1  0
 44 49  1  0
 45 50  1  0
 45 44  2  0
 46 45  1  0
 47 46  2  0
 47 48  1  0
 48 43  2  0
 51 46  1  0
 52 47  1  0
 53 48  1  0
M  END
>  <minimizedAffinity>  (303) 
-8.90350819

$$$$

     RDKit          3D

 37 35  0  0  0  0  0  0  0  0999 V2000
  -15.7520  -28.6640   55.5840 C   0  0  0  0  0  3  0  0  0  0  0  0
  -14.6910  -29.6570   55.9530 N   0  0  0  0  0  0  0  0  0  0  0  0
  -15.3120  -31.0230   55.9430 N   0  0  0  0  0  0  0  0  0  0  0  0
  -14.7480  -32.3840   56.2270 N   0  0  0  0  0  0  0  0  0  0  0  0
  -15.6280  -33.5940   56.1350 C   0  0  0  0  0  0  0  0  0  0  0  0
  -17.0730  -33.4440   55.7590 C   0  0  0  0  0  0  0  0  0  0  0  0
  -17.6370  -32.0840   55.4750 C   0  0  0  0  0  0  0  0  0  0  0  0
  -16.7560  -30.8730   55.5670 C   0  0  0  0  0  0  0  0  0  0  0  0
  -17.0290  -29.4140   55.3450 C   0  0  0  0  0  0  0  0  0  0  0  0
  -15.2410  -34.5310   56.3300 H   0  0  0  0  0  0  0  0  0  0  0  0
  -17.6790  -34.2780   55.6960 H   0  0  0  0  0  0  0  0  0  0  0  0
  -18.6300  -31.9810   55.2170 H   0  0  0  0  0  0  0  0  0  0  0  0
  -18.3450  -28.8140   54.9540 C   0  0  0  0  0  0  0  0  0  0  0  0
  -18.9360  -29.1120   53.6080 C   0  0  0  0  0  0  0  0  0  0  0  0
  -20.2530  -28.5110   53.2160 C   0  0  0  0  0  3  0  0  0  0  0  0
  -20.9800  -27.6110   54.1710 N   0  0  0  0  0  0  0  0  0  0  0  0
  -20.3900  -27.3120   55.5170 C   0  0  0  0  0  0  0  0  0  0  0  0
  -21.1160  -26.4120   56.4720 N   0  0  0  0  0  2  0  0  0  0  0  0
  -19.0720  -27.9140   55.9080 N   0  0  0  0  0  0  0  0  0  0  0  0
  -18.4360  -29.7310   52.9510 H   0  0  0  0  0  0  0  0  0  0  0  0
  -20.6590  -28.7170   52.2900 H   0  0  0  0  0  0  0  0  0  0  0  0
  -20.7290  -26.2160   57.3550 H   0  0  0  0  0  0  0  0  0  0  0  0
  -22.4340  -25.8110   56.0810 C   0  0  0  0  0 15  0  0  0  0  0  0
  -23.8790  -25.9740   55.7160 C   0  0  0  0  0  3  0  0  0  0  0  0
  -23.2700  -24.6050   55.7690 C   0  0  0  0  0  2  0  0  0  0  0  0
  -23.3740  -25.3810   55.8020 H   0  0  0  0  0  0  0  0  0  0  0  0
  -24.7260  -26.6060   55.5430 H   0  0  0  0  0  0  0  0  0  0  0  0
  -24.6740  -25.3070   55.4560 H   0  0  0  0  0  0  0  0  0  0  0  0
  -23.3630  -23.5450   55.6630 H   0  0  0  0  0  0  0  0  0  0  0  0
  -22.2970  -24.2170   55.9930 H   0  0  0  0  0  0  0  0  0  0  0  0
  -15.5690  -27.1790   55.4730 C   0  0  0  0  0  3  0  0  0  0  0  0
  -15.1750  -26.7540   54.5730 H   0  0  0  0  0  0  0  0  0  0  0  0
  -15.3060  -27.8130   54.6520 H   0  0  0  0  0  0  0  0  0  0  0  0
  -15.9380  -26.2900   56.6230 C   0  0  0  0  0  0  0  0  0  0  0  0
  -15.8080  -25.2310   56.5440 H   0  0  0  0  0  0  0  0  0  0  0  0
  -16.3320  -26.7140   57.5230 H   0  0  0  0  0  0  0  0  0  0  0  0
  -16.2020  -25.6550   57.4440 H   0  0  0  0  0  0  0  0  0  0  0  0
  1  2  2  0
  3  2  1  0
  3  4  1  0
  5  4  2  0
  5 10  1  0
  6  5  1  0
  7  8  1  0
  7  6  2  0
  8  3  1  0
  9  8  2  0
  9  1  1  0
 11  6  1  0
 12  7  1  0
 13  9  1  0
 13 19  1  0
 14 13  2  0
 15 14  1  0
 15 16  1  0
 16 17  2  0
 17 19  2  0
 17 18  1  0
 18 22  1  0
 20 14  1  0
 21 15  1  0
 24 26  1  0
 25 30  1  0
 27 24  1  0
 28 24  1  0
 29 25  1  0
 31 34  1  0
 32 31  1  0
 33 31  1  0
 34 37  1  0
 34 36  1  0
 35 34  1  0
M  END
>  <minimizedAffinity>  (304) 
-7.89962578

$$$$

     RDKit          3D

 40 39  0  0  0  0  0  0  0  0999 V2000
  -24.5790  -29.2320   55.4430 N   0  0  0  0  0  0  0  0  0  0  0  0
  -23.6110  -28.5640   54.5110 C   0  0  0  0  0  0  0  0  0  0  0  0
  -23.9670  -28.3810   53.0650 O   0  0  0  0  0  0  0  0  0  0  0  0
  -24.3450  -29.3520   56.3920 H   0  0  0  0  0  0  0  0  0  0  0  0
  -27.1970  -28.9630   54.9780 C   0  0  0  0  0  0  0  0  0  0  0  0
  -25.9020  -29.7170   54.9290 C   0  0  0  0  0  0  0  0  0  0  0  0
  -26.1620  -31.0430   54.2760 S   0  0  0  0  0  0  0  0  0  0  0  0
  -27.6180  -31.1060   53.9220 C   0  0  0  0  0  3  0  0  0  0  0  0
  -28.2570  -29.8210   54.3550 C   0  0  0  0  0  0  0  0  0  0  0  0
  -29.7230  -29.5980   54.1270 C   0  0  0  0  0  3  0  0  0  0  0  0
  -30.5490  -30.6610   53.4660 C   0  0  0  0  0  2  0  0  0  0  0  0
  -29.9090  -31.9470   53.0320 C   0  0  0  0  0  2  0  0  0  0  0  0
  -28.4440  -32.1690   53.2600 C   0  0  0  0  0  2  0  0  0  0  0  0
  -30.1800  -28.6810   54.4360 H   0  0  0  0  0  0  0  0  0  0  0  0
  -30.7690  -29.4400   53.9640 H   0  0  0  0  0  0  0  0  0  0  0  0
  -31.5950  -30.5030   53.3030 H   0  0  0  0  0  0  0  0  0  0  0  0
  -31.1390  -31.4200   52.9940 H   0  0  0  0  0  0  0  0  0  0  0  0
  -30.4990  -32.7050   52.5600 H   0  0  0  0  0  0  0  0  0  0  0  0
  -29.4530  -32.8640   52.7230 H   0  0  0  0  0  0  0  0  0  0  0  0
  -27.9870  -33.0870   52.9510 H   0  0  0  0  0  0  0  0  0  0  0  0
  -27.3990  -32.3280   53.4230 H   0  0  0  0  0  0  0  0  0  0  0  0
  -27.5970  -26.2170   56.1200 N   0  0  0  0  0  1  0  0  0  0  0  0
  -27.3960  -27.5890   55.5490 C   0  0  0  0  0  2  0  0  0  0  0  0
  -22.2880  -28.0790   55.0250 C   0  0  0  0  0  0  0  0  0  0  0  0
  -21.1090  -29.0050   55.0510 C   0  0  0  0  0  0  0  0  0  0  0  0
  -19.7860  -28.5200   55.5650 C   0  0  0  0  0  0  0  0  0  0  0  0
  -19.6420  -27.1080   56.0520 C   0  0  0  0  0  0  0  0  0  0  0  0
  -18.3190  -26.6230   56.5660 F   0  0  0  0  0  0  0  0  0  0  0  0
  -20.8220  -26.1820   56.0250 C   0  0  0  0  0  0  0  0  0  0  0  0
  -20.6780  -24.7700   56.5120 C   0  0  0  0  0  0  0  0  0  0  0  0
  -21.8580  -23.8440   56.4850 C   0  0  0  0  0  0  0  0  0  0  0  0
  -23.1810  -24.3290   55.9720 C   0  0  0  0  0  0  0  0  0  0  0  0
  -23.3240  -25.7410   55.4850 C   0  0  0  0  0  0  0  0  0  0  0  0
  -22.1450  -26.6670   55.5120 C   0  0  0  0  0  0  0  0  0  0  0  0
  -21.2070  -29.9760   54.7160 H   0  0  0  0  0  0  0  0  0  0  0  0
  -18.9740  -29.1570   55.5840 H   0  0  0  0  0  0  0  0  0  0  0  0
  -19.7680  -24.4370   56.8660 H   0  0  0  0  0  0  0  0  0  0  0  0
  -21.7590  -22.8730   56.8200 H   0  0  0  0  0  0  0  0  0  0  0  0
  -23.9920  -23.6920   55.9530 H   0  0  0  0  0  0  0  0  0  0  0  0
  -24.2350  -26.0750   55.1310 H   0  0  0  0  0  0  0  0  0  0  0  0
  1  4  1  0
  2 24  1  0
  2  1  1  0
  3  2  2  0
  5 23  1  0
  6  5  2  0
  6  1  1  0
  7  6  1  0
  8  7  1  0
  8  9  2  0
  9  5  1  0
 10  9  1  0
 10 14  1  0
 13 21  1  0
 15 10  1  0
 16 11  1  0
 17 11  1  0
 18 12  1  0
 19 12  1  0
 20 13  1  0
 23 22  1  0
 24 25  2  0
 24 34  1  0
 25 26  1  0
 26 36  1  0
 26 27  2  0
 27 28  1  0
 29 27  1  0
 29 30  1  0
 30 37  1  0
 31 30  2  0
 31 38  1  0
 32 31  1  0
 33 34  1  0
 33 32  2  0
 34 29  2  0
 35 25  1  0
 39 32  1  0
 40 33  1  0
M  END
>  <minimizedAffinity>  (305) 
-8.41179085

$$$$

     RDKit          3D

 36 37  0  0  0  0  0  0  0  0999 V2000
  -17.3180  -33.4210   53.5180 O   0  0  0  0  0  0  0  0  0  0  0  0
  -17.7590  -31.9880   53.4650 C   0  0  0  0  0  0  0  0  0  0  0  0
  -18.6290  -31.3720   52.4090 N   0  0  0  0  0  0  0  0  0  0  0  0
  -18.8160  -29.9240   52.7500 C   0  0  0  0  0  0  0  0  0  0  0  0
  -19.6160  -28.9280   51.9630 O   0  0  0  0  0  0  0  0  0  0  0  0
  -18.0610  -29.6440   54.0170 C   0  0  0  0  0  0  0  0  0  0  0  0
  -17.4090  -30.9210   54.4580 C   0  0  0  0  0  0  0  0  0  0  0  0
  -19.0100  -31.8370   51.6300 H   0  0  0  0  0  0  0  0  0  0  0  0
  -17.9750  -28.3210   54.7170 N   0  0  0  0  0  0  0  0  0  0  0  0
  -16.7260  -27.5230   54.9440 C   0  0  0  0  0  3  0  0  0  0  0  0
  -17.1010  -26.2720   55.6820 C   0  0  0  0  0  2  0  0  0  0  0  0
  -18.5840  -26.2970   55.9110 C   0  0  0  0  0  3  0  0  0  0  0  0
  -19.5120  -25.3300   56.5850 C   0  0  0  0  0  0  0  0  0  0  0  0
  -20.9790  -25.6300   56.6640 C   0  0  0  0  0  0  0  0  0  0  0  0
  -21.5190  -26.8960   56.0680 C   0  0  0  0  0  0  0  0  0  0  0  0
  -20.5910  -27.8630   55.3930 C   0  0  0  0  0  0  0  0  0  0  0  0
  -19.1240  -27.5630   55.3150 C   0  0  0  0  0  0  0  0  0  0  0  0
  -15.7390  -27.7970   54.6340 H   0  0  0  0  0  0  0  0  0  0  0  0
  -15.9350  -26.8430   55.1820 H   0  0  0  0  0  0  0  0  0  0  0  0
  -16.4310  -25.4980   55.9900 H   0  0  0  0  0  0  0  0  0  0  0  0
  -17.5270  -25.4390   56.2020 H   0  0  0  0  0  0  0  0  0  0  0  0
  -19.1400  -24.4590   56.9950 H   0  0  0  0  0  0  0  0  0  0  0  0
  -21.6180  -24.9650   57.1280 H   0  0  0  0  0  0  0  0  0  0  0  0
  -22.5290  -27.1030   56.1220 H   0  0  0  0  0  0  0  0  0  0  0  0
  -20.9630  -28.7340   54.9830 H   0  0  0  0  0  0  0  0  0  0  0  0
  -16.5540  -31.0980   55.6790 C   0  0  0  0  0  0  0  0  0  0  0  0
  -15.1740  -30.5130   55.7190 C   0  0  0  0  0  0  0  0  0  0  0  0
  -14.3200  -30.6910   56.9390 C   0  0  0  0  0  0  0  0  0  0  0  0
  -14.8480  -31.4520   58.1190 C   0  0  0  0  0  0  0  0  0  0  0  0
  -13.9940  -31.6290   59.3400 Cl  0  0  0  0  0  0  0  0  0  0  0  0
  -16.2280  -32.0360   58.0790 C   0  0  0  0  0  0  0  0  0  0  0  0
  -17.0820  -31.8590   56.8580 C   0  0  0  0  0  0  0  0  0  0  0  0
  -14.8110  -29.9890   54.9080 H   0  0  0  0  0  0  0  0  0  0  0  0
  -13.3700  -30.2880   56.9670 H   0  0  0  0  0  0  0  0  0  0  0  0
  -16.5900  -32.5600   58.8910 H   0  0  0  0  0  0  0  0  0  0  0  0
  -18.0320  -32.2610   56.8300 H   0  0  0  0  0  0  0  0  0  0  0  0
  2  1  2  0
  2  7  1  0
  3  4  1  0
  3  2  1  0
  4  6  1  0
  5  4  2  0
  6  7  2  0
  6  9  1  0
  7 26  1  0
  8  3  1  0
  9 10  1  0
  9 17  1  0
 10 19  1  0
 11 20  1  0
 11 21  1  0
 12 13  1  0
 13 14  2  0
 13 22  1  0
 14 23  1  0
 15 24  1  0
 15 14  1  0
 16 15  2  0
 17 16  1  0
 17 12  2  0
 18 10  1  0
 25 16  1  0
 26 27  2  0
 26 32  1  0
 27 28  1  0
 28 34  1  0
 28 29  2  0
 29 30  1  0
 31 29  1  0
 31 35  1  0
 32 31  2  0
 33 27  1  0
 36 32  1  0
M  END
>  <minimizedAffinity>  (306) 
-7.91026592

$$$$

     RDKit          3D

 53 48  0  0  0  0  0  0  0  0999 V2000
  -21.7070  -25.2740   56.2270 C   0  0  0  0  0  0  0  0  0  0  0  0
  -22.9280  -24.4350   56.4620 C   0  0  0  0  0  0  0  0  0  0  0  0
  -24.2920  -25.0110   56.2240 C   0  0  0  0  0  0  0  0  0  0  0  0
  -24.4350  -26.4280   55.7510 C   0  0  0  0  0  0  0  0  0  0  0  0
  -23.2150  -27.2670   55.5160 C   0  0  0  0  0  0  0  0  0  0  0  0
  -21.8510  -26.6910   55.7540 C   0  0  0  0  0  0  0  0  0  0  0  0
  -22.8290  -23.4600   56.7870 H   0  0  0  0  0  0  0  0  0  0  0  0
  -25.1320  -24.4330   56.3860 H   0  0  0  0  0  0  0  0  0  0  0  0
  -23.3130  -28.2420   55.1910 H   0  0  0  0  0  0  0  0  0  0  0  0
  -20.6300  -27.5300   55.5190 C   0  0  0  0  0  0  0  0  0  0  0  0
  -19.6500  -27.1460   54.4510 C   0  0  0  0  0  0  0  0  0  0  0  0
  -18.4290  -27.9860   54.2160 C   0  0  0  0  0  0  0  0  0  0  0  0
  -18.1890  -29.2100   55.0490 C   0  0  0  0  0  0  0  0  0  0  0  0
  -19.1700  -29.5940   56.1180 C   0  0  0  0  0  0  0  0  0  0  0  0
  -20.3900  -28.7540   56.3530 C   0  0  0  0  0  0  0  0  0  0  0  0
  -19.8150  -26.3040   53.8780 H   0  0  0  0  0  0  0  0  0  0  0  0
  -17.7540  -27.7210   53.4810 H   0  0  0  0  0  0  0  0  0  0  0  0
  -19.0040  -30.4360   56.6910 H   0  0  0  0  0  0  0  0  0  0  0  0
  -21.0650  -29.0190   57.0870 H   0  0  0  0  0  0  0  0  0  0  0  0
  -16.9680  -30.0490   54.8150 C   0  0  0  0  0  0  0  0  0  0  0  0
  -16.6660  -30.5640   53.4390 O   0  0  0  0  0  0  0  0  0  0  0  0
  -16.0500  -30.3740   55.9560 N   0  0  0  0  0  4  0  0  0  0  0  0
  -16.2490  -30.0360   56.8580 H   0  0  0  0  0  0  0  0  0  0  0  0
  -14.8300  -31.2130   55.7210 C   0  0  0  0  0  0  0  0  0  0  0  0
  -14.6650  -31.6620   54.7630 H   0  0  0  0  0  0  0  0  0  0  0  0
  -13.9590  -31.8130   55.5530 H   0  0  0  0  0  0  0  0  0  0  0  0
  -13.8400  -31.4250   56.8280 C   0  0  0  0  0 15  0  0  0  0  0  0
  -13.5400  -31.5840   58.2890 C   0  0  0  0  0  3  0  0  0  0  0  0
  -12.4270  -31.6320   57.2850 C   0  0  0  0  0  2  0  0  0  0  0  0
  -13.1350  -31.5750   57.6180 H   0  0  0  0  0  0  0  0  0  0  0  0
  -13.8750  -31.6300   59.3040 H   0  0  0  0  0  0  0  0  0  0  0  0
  -12.6530  -31.7380   58.8670 H   0  0  0  0  0  0  0  0  0  0  0  0
  -11.3870  -31.7370   57.0600 H   0  0  0  0  0  0  0  0  0  0  0  0
  -12.3650  -31.5490   56.2200 H   0  0  0  0  0  0  0  0  0  0  0  0
  -20.3430  -24.6980   56.4650 C   0  0  0  0  0  0  0  0  0  0  0  0
  -20.2410  -23.6870   56.8020 H   0  0  0  0  0  0  0  0  0  0  0  0
  -19.4720  -25.2970   56.2970 H   0  0  0  0  0  0  0  0  0  0  0  0
  -19.3700  -24.2870   56.6350 H   0  0  0  0  0  0  0  0  0  0  0  0
  -25.7990  -27.0040   55.5130 C   0  0  0  0  0  0  0  0  0  0  0  0
  -25.9450  -28.4340   55.0850 O   0  0  0  0  0  0  0  0  0  0  0  0
  -27.0180  -26.1500   55.7040 N   0  0  0  0  0  0  0  0  0  0  0  0
  -26.9230  -25.2120   55.9850 H   0  0  0  0  0  0  0  0  0  0  0  0
  -28.3820  -26.7270   55.4660 C   0  0  0  0  0  1  0  0  0  0  0  0
  -29.1100  -27.2730   54.2720 C   0  0  0  0  0  2  0  0  0  0  0  0
  -30.3110  -27.5420   55.1290 C   0  0  0  0  0  3  0  0  0  0  0  0
  -29.5840  -26.9970   56.3220 C   0  0  0  0  0  2  0  0  0  0  0  0
  -29.3550  -27.1380   55.2960 H   0  0  0  0  0  0  0  0  0  0  0  0
  -28.8710  -27.4110   53.2390 H   0  0  0  0  0  0  0  0  0  0  0  0
  -29.9170  -27.7050   53.7200 H   0  0  0  0  0  0  0  0  0  0  0  0
  -31.2840  -27.9540   54.9590 H   0  0  0  0  0  0  0  0  0  0  0  0
  -30.9050  -27.5720   56.0200 H   0  0  0  0  0  0  0  0  0  0  0  0
  -29.8230  -26.8580   57.3560 H   0  0  0  0  0  0  0  0  0  0  0  0
  -28.7760  -26.5640   56.8740 H   0  0  0  0  0  0  0  0  0  0  0  0
  1  2  1  0
  1 35  1  0
  2  7  1  0
  3  8  1  0
  3  2  2  0
  4  3  1  0
  5  4  2  0
  5  6  1  0
  6  1  2  0
  9  5  1  0
 10  6  1  0
 10 15  1  0
 11 10  2  0
 12 11  1  0
 12 13  2  0
 13 14  1  0
 14 15  2  0
 14 18  1  0
 15 19  1  0
 16 11  1  0
 17 12  1  0
 20 13  1  0
 20 22  1  0
 21 20  2  0
 22 23  1  0
 24 22  2  0
 25 24  1  0
 26 24  1  0
 28 32  1  0
 28 31  1  0
 30 28  1  0
 33 29  1  0
 34 29  1  0
 35 38  1  0
 35 36  1  0
 37 35  1  0
 39 41  1  0
 39  4  1  0
 40 39  2  0
 41 42  1  0
 43 41  1  0
 45 47  1  0
 45 51  1  0
 46 53  1  0
 46 52  1  0
 48 44  1  0
 49 44  1  0
 50 45  1  0
M  END
>  <minimizedAffinity>  (307) 
-10.1134415

$$$$

     RDKit          3D

 64 60  0  0  0  0  0  0  0  0999 V2000
  -20.6440  -27.4240   55.5320 C   0  0  0  0  0  0  0  0  0  0  0  0
  -19.6290  -26.3610   55.8310 C   0  0  0  0  0  0  0  0  0  0  0  0
  -18.2650  -26.9730   55.7000 C   0  0  0  0  0  0  0  0  0  0  0  0
  -16.8890  -26.4040   55.8790 N   0  0  0  0  0  0  0  0  0  0  0  0
  -15.6850  -27.2760   55.6760 C   0  0  0  0  0  0  0  0  0  0  0  0
  -15.8580  -28.7170   55.2960 N   0  0  0  0  0  0  0  0  0  0  0  0
  -17.2340  -29.2860   55.1180 C   0  0  0  0  0  0  0  0  0  0  0  0
  -18.4380  -28.4140   55.3200 C   0  0  0  0  0  0  0  0  0  0  0  0
  -19.9080  -28.6930   55.2160 S   0  0  0  0  0  0  0  0  0  0  0  0
  -19.8330  -25.3820   56.0830 H   0  0  0  0  0  0  0  0  0  0  0  0
  -14.7380  -26.8850   55.7990 H   0  0  0  0  0  0  0  0  0  0  0  0
  -23.6230  -27.0740   55.5590 C   0  0  0  0  0 15  0  0  0  0  0  0
  -22.1330  -27.2490   55.5450 C   0  0  0  0  0  1  0  0  0  0  0  0
  -27.4930  -27.3580   55.4350 C   0  0  0  0  0  2  0  0  0  0  0  0
  -27.3190  -25.9020   55.7540 C   0  0  0  0  0  2  0  0  0  0  0  0
  -25.8480  -25.6190   55.8400 N   0  0  0  0  0  1  0  0  0  0  0  0
  -25.1130  -26.8990   55.5730 C   0  0  0  0  0  2  0  0  0  0  0  0
  -26.1290  -27.9740   55.3220 C   0  0  0  0  0  3  0  0  0  0  0  0
  -28.3830  -26.7750   55.5470 H   0  0  0  0  0  0  0  0  0  0  0  0
  -28.1050  -25.1910   55.8970 H   0  0  0  0  0  0  0  0  0  0  0  0
  -27.0290  -24.8970   55.9780 H   0  0  0  0  0  0  0  0  0  0  0  0
  -25.4230  -24.7140   56.0440 H   0  0  0  0  0  0  0  0  0  0  0  0
  -24.5200  -26.0310   55.7720 H   0  0  0  0  0  0  0  0  0  0  0  0
  -25.9180  -28.9990   55.1020 H   0  0  0  0  0  0  0  0  0  0  0  0
  -26.9690  -28.6190   55.1680 H   0  0  0  0  0  0  0  0  0  0  0  0
  -28.8000  -28.0720   55.2580 O   0  0  0  0  0  0  0  0  0  0  0  0
  -30.8220  -27.0420   53.9930 N   0  0  0  0  0  1  0  0  0  0  0  0
  -29.5860  -27.8940   53.9940 C   0  0  0  0  0  2  0  0  0  0  0  0
  -29.1390  -28.5660   52.7300 O   0  0  0  0  0  1  0  0  0  0  0  0
  -31.1160  -26.6010   54.8220 H   0  0  0  0  0  0  0  0  0  0  0  0
  -31.6090  -26.8640   52.7290 C   0  0  0  0  0  3  0  0  0  0  0  0
  -31.6420  -27.6500   52.0040 H   0  0  0  0  0  0  0  0  0  0  0  0
  -31.0800  -27.7780   52.9050 H   0  0  0  0  0  0  0  0  0  0  0  0
  -32.3510  -25.5830   52.4810 C   0  0  0  0  0  0  0  0  0  0  0  0
  -32.9120  -25.4560   51.5790 H   0  0  0  0  0  0  0  0  0  0  0  0
  -32.3170  -24.7980   53.2060 H   0  0  0  0  0  0  0  0  0  0  0  0
  -32.8790  -24.6700   52.3040 H   0  0  0  0  0  0  0  0  0  0  0  0
  -17.4070  -30.7260   54.7380 N   0  0  0  0  0  0  0  0  0  0  0  0
  -18.1230  -30.9880   54.1150 H   0  0  0  0  0  0  0  0  0  0  0  0
  -16.4880  -31.7670   55.3060 C   0  0  0  0  0  0  0  0  0  0  0  0
  -16.7590  -32.3470   56.6620 C   0  0  0  0  0  0  0  0  0  0  0  0
  -15.8400  -33.3880   57.2300 C   0  0  0  0  0  0  0  0  0  0  0  0
  -14.6510  -33.8490   56.4420 C   0  0  0  0  0  0  0  0  0  0  0  0
  -14.3800  -33.2690   55.0850 C   0  0  0  0  0  0  0  0  0  0  0  0
  -13.1900  -33.7300   54.2960 Cl  0  0  0  0  0  0  0  0  0  0  0  0
  -15.2980  -32.2280   54.5170 C   0  0  0  0  0  0  0  0  0  0  0  0
  -17.5780  -32.0300   57.2050 H   0  0  0  0  0  0  0  0  0  0  0  0
  -16.0270  -33.7870   58.1640 H   0  0  0  0  0  0  0  0  0  0  0  0
  -15.1120  -31.8290   53.5830 H   0  0  0  0  0  0  0  0  0  0  0  0
  -13.7320  -34.8900   57.0090 O   0  0  0  0  0  0  0  0  0  0  0  0
  -12.9400  -34.5960   58.2490 C   0  0  0  0  0  0  0  0  0  0  0  0
  -13.0450  -35.2200   59.1120 H   0  0  0  0  0  0  0  0  0  0  0  0
  -12.3750  -34.3850   59.1330 H   0  0  0  0  0  0  0  0  0  0  0  0
  -12.0020  -33.4260   58.2790 C   0  0  0  0  0  0  0  0  0  0  0  0
  -10.9100  -33.3150   57.2570 C   0  0  0  0  0  0  0  0  0  0  0  0
   -9.9710  -32.1450   57.2870 C   0  0  0  0  0  0  0  0  0  0  0  0
  -10.1240  -31.0880   58.3390 C   0  0  0  0  0  0  0  0  0  0  0  0
  -11.2160  -31.1990   59.3620 C   0  0  0  0  0  0  0  0  0  0  0  0
  -11.3690  -30.1410   60.4140 F   0  0  0  0  0  0  0  0  0  0  0  0
  -12.1540  -32.3690   59.3320 C   0  0  0  0  0  0  0  0  0  0  0  0
  -10.8040  -34.0420   56.5330 H   0  0  0  0  0  0  0  0  0  0  0  0
   -9.2190  -32.0680   56.5830 H   0  0  0  0  0  0  0  0  0  0  0  0
   -9.4770  -30.2830   58.3600 H   0  0  0  0  0  0  0  0  0  0  0  0
  -12.9060  -32.4450   60.0350 H   0  0  0  0  0  0  0  0  0  0  0  0
  1 13  1  0
  1  2  2  0
  2 10  1  0
  3  2  1  0
  3  4  1  0
  5 11  1  0
  5  4  2  0
  6  5  1  0
  7  6  2  0
  7  8  1  0
  8  3  2  0
  9  8  1  0
  9  1  1  0
 14 19  1  0
 15 20  1  0
 15 21  1  0
 16 22  1  0
 17 23  1  0
 18 17  1  0
 24 18  1  0
 25 18  1  0
 26 14  1  0
 27 30  1  0
 28 26  1  0
 29 28  1  0
 31 33  1  0
 32 31  1  0
 34 31  1  0
 34 36  1  0
 35 34  1  0
 37 34  1  0
 38  7  1  0
 38 40  1  0
 39 38  1  0
 40 41  1  0
 41 47  1  0
 41 42  2  0
 42 48  1  0
 43 50  1  0
 43 42  1  0
 44 43  2  0
 45 44  1  0
 46 44  1  0
 46 40  2  0
 49 46  1  0
 50 51  1  0
 51 54  1  0
 51 52  1  0
 51 53  1  0
 54 60  1  0
 55 56  1  0
 55 54  2  0
 56 57  2  0
 57 63  1  0
 57 58  1  0
 58 59  1  0
 60 58  2  0
 60 64  1  0
 61 55  1  0
 62 56  1  0
M  END
>  <minimizedAffinity>  (308) 
-11.2341413

$$$$

     RDKit          3D

 34 37  0  0  0  0  0  0  0  0999 V2000
  -23.8090  -27.4490   55.4290 N   0  0  0  0  0  0  0  0  0  0  0  0
  -22.9670  -28.6860   55.3210 C   0  0  0  0  0  0  0  0  0  0  0  0
  -21.5470  -28.3090   55.6240 C   0  0  0  0  0  0  0  0  0  0  0  0
  -21.5110  -26.8380   55.9180 C   0  0  0  0  0  0  0  0  0  0  0  0
  -20.3860  -25.9150   56.2810 C   0  0  0  0  0  0  0  0  0  0  0  0
  -20.6590  -24.4600   56.5230 C   0  0  0  0  0  0  0  0  0  0  0  0
  -22.0570  -23.9280   56.4020 C   0  0  0  0  0  0  0  0  0  0  0  0
  -23.1810  -24.8520   56.0400 C   0  0  0  0  0  0  0  0  0  0  0  0
  -22.9090  -26.3070   55.7980 C   0  0  0  0  0  0  0  0  0  0  0  0
  -23.3050  -29.6310   55.0810 H   0  0  0  0  0  0  0  0  0  0  0  0
  -19.4250  -26.2800   56.3640 H   0  0  0  0  0  0  0  0  0  0  0  0
  -19.8850  -23.8240   56.7720 H   0  0  0  0  0  0  0  0  0  0  0  0
  -22.2440  -22.9270   56.5690 H   0  0  0  0  0  0  0  0  0  0  0  0
  -24.1430  -24.4870   55.9570 H   0  0  0  0  0  0  0  0  0  0  0  0
  -20.3700  -29.2380   55.6310 C   0  0  0  0  0  0  0  0  0  0  0  0
  -19.7810  -29.7120   54.3350 C   0  0  0  0  0  0  0  0  0  0  0  0
  -20.2610  -29.3440   52.9620 C   0  0  0  0  0  0  0  0  0  0  0  0
  -21.4120  -28.4380   52.6440 O   0  0  0  0  0  0  0  0  0  0  0  0
  -19.3860  -30.0420   51.9630 N   0  0  0  0  0  0  0  0  0  0  0  0
  -18.3660  -30.8420   52.7190 C   0  0  0  0  0  0  0  0  0  0  0  0
  -17.2460  -31.7290   52.2610 C   0  0  0  0  0  0  0  0  0  0  0  0
  -16.3710  -32.4120   53.2700 C   0  0  0  0  0  0  0  0  0  0  0  0
  -16.6160  -32.2080   54.7360 C   0  0  0  0  0  0  0  0  0  0  0  0
  -17.7350  -31.3210   55.1940 N   0  0  0  0  0  0  0  0  0  0  0  0
  -18.6110  -30.6380   54.1850 C   0  0  0  0  0  0  0  0  0  0  0  0
  -19.9640  -29.5510   56.5260 H   0  0  0  0  0  0  0  0  0  0  0  0
  -19.4670  -29.9860   50.9840 H   0  0  0  0  0  0  0  0  0  0  0  0
  -17.0780  -31.8690   51.2530 H   0  0  0  0  0  0  0  0  0  0  0  0
  -15.6010  -33.0230   52.9560 H   0  0  0  0  0  0  0  0  0  0  0  0
  -16.0130  -32.6780   55.4300 H   0  0  0  0  0  0  0  0  0  0  0  0
  -25.2890  -27.3680   55.2070 C   0  0  0  0  0  0  0  0  0  0  0  0
  -25.7950  -26.4310   55.3090 H   0  0  0  0  0  0  0  0  0  0  0  0
  -25.8410  -28.2480   54.9450 H   0  0  0  0  0  0  0  0  0  0  0  0
  -26.3470  -27.3110   55.0480 H   0  0  0  0  0  0  0  0  0  0  0  0
  1  9  1  0
  2  1  1  0
  2  3  2  0
  3 15  1  0
  3  4  1  0
  4  5  1  0
  5 11  1  0
  5  6  2  0
  6 12  1  0
  7  6  1  0
  7 13  1  0
  8  7  2  0
  9  4  2  0
  9  8  1  0
 10  2  1  0
 14  8  1  0
 15 26  1  0
 16 15  2  0
 17 16  1  0
 18 17  2  0
 19 20  1  0
 19 17  1  0
 20 25  1  0
 21 20  2  0
 21 22  1  0
 22 23  2  0
 23 24  1  0
 23 30  1  0
 25 16  1  0
 25 24  2  0
 27 19  1  0
 28 21  1  0
 29 22  1  0
 31 32  1  0
 31  1  1  0
 33 31  1  0
 34 31  1  0
M  END
>  <minimizedAffinity>  (309) 
-7.62206364

$$$$

     RDKit          3D

 37 39  0  0  0  0  0  0  0  0999 V2000
  -24.0980  -26.4190   55.7070 C   0  0  0  0  0  0  0  0  0  0  0  0
  -24.0590  -25.0960   56.4140 C   0  0  0  0  0  0  0  0  0  0  0  0
  -22.7440  -24.4200   56.6660 C   0  0  0  0  0  0  0  0  0  0  0  0
  -21.4690  -25.0660   56.2120 C   0  0  0  0  0  0  0  0  0  0  0  0
  -21.5080  -26.3880   55.5050 C   0  0  0  0  0  0  0  0  0  0  0  0
  -22.8230  -27.0650   55.2530 C   0  0  0  0  0  0  0  0  0  0  0  0
  -20.0980  -26.7810   55.1750 C   0  0  0  0  0  0  0  0  0  0  0  0
  -19.6740  -28.0330   54.4670 N   0  0  0  0  0  0  0  0  0  0  0  0
  -19.1870  -25.7010   55.6780 C   0  0  0  0  0  0  0  0  0  0  0  0
  -17.6920  -25.6830   55.5610 O   0  0  0  0  0  0  0  0  0  0  0  0
  -20.0340  -24.6410   56.3190 N   0  0  0  0  0  0  0  0  0  0  0  0
  -24.9360  -24.6510   56.7270 H   0  0  0  0  0  0  0  0  0  0  0  0
  -22.7160  -23.5100   57.1530 H   0  0  0  0  0  0  0  0  0  0  0  0
  -22.8510  -27.9750   54.7660 H   0  0  0  0  0  0  0  0  0  0  0  0
  -19.7060  -23.8120   56.7360 H   0  0  0  0  0  0  0  0  0  0  0  0
  -25.4130  -27.0950   55.4550 C   0  0  0  0  0  0  0  0  0  0  0  0
  -26.3230  -26.6340   55.7800 H   0  0  0  0  0  0  0  0  0  0  0  0
  -25.4420  -28.0390   54.9510 H   0  0  0  0  0  0  0  0  0  0  0  0
  -26.3510  -27.5770   55.2750 H   0  0  0  0  0  0  0  0  0  0  0  0
  -18.2200  -28.2910   54.2060 N   0  0  0  0  0  0  0  0  0  0  0  0
  -17.7560  -27.8070   53.4840 H   0  0  0  0  0  0  0  0  0  0  0  0
  -17.4720  -29.2860   55.0430 C   0  0  0  0  0  0  0  0  0  0  0  0
  -18.1740  -30.5040   55.5650 C   0  0  0  0  0  0  0  0  0  0  0  0
  -17.4260  -31.5000   56.4030 C   0  0  0  0  0  0  0  0  0  0  0  0
  -15.9780  -31.2750   56.7190 C   0  0  0  0  0  0  0  0  0  0  0  0
  -15.2760  -30.0570   56.1970 C   0  0  0  0  0  0  0  0  0  0  0  0
  -16.0230  -29.0620   55.3600 C   0  0  0  0  0  0  0  0  0  0  0  0
  -19.1710  -30.6590   55.3480 H   0  0  0  0  0  0  0  0  0  0  0  0
  -17.9090  -32.3370   56.7610 H   0  0  0  0  0  0  0  0  0  0  0  0
  -14.2790  -29.9020   56.4140 H   0  0  0  0  0  0  0  0  0  0  0  0
  -15.5400  -28.2230   55.0000 H   0  0  0  0  0  0  0  0  0  0  0  0
  -15.2300  -32.2700   57.5570 S   0  0  1  0  0  0  0  0  0  0  0  0
  -13.9680  -31.4810   57.3680 O   0  0  0  0  0  0  0  0  0  0  0  0
  -16.4910  -33.0590   57.7450 O   0  0  0  0  0  0  0  0  0  0  0  0
  -14.4820  -33.2650   58.3940 N   0  0  0  0  0  0  0  0  0  0  0  0
  -13.4850  -33.1380   58.5680 H   0  0  0  0  0  0  0  0  0  0  0  0
  -14.9710  -34.0670   58.7900 H   0  0  0  0  0  0  0  0  0  0  0  0
  1  2  1  0
  2  3  2  0
  2 12  1  0
  3 13  1  0
  4 11  1  0
  4  3  1  0
  5  4  2  0
  6  5  1  0
  6  1  2  0
  7  5  1  0
  7  9  1  0
  8  7  2  0
  9 11  1  0
 10  9  2  0
 11 15  1  0
 14  6  1  0
 16  1  1  0
 16 17  1  0
 18 16  1  0
 19 16  1  0
 20  8  1  0
 20 22  1  0
 21 20  1  0
 22 27  2  0
 22 23  1  0
 23 24  2  0
 24 25  1  0
 24 29  1  0
 25 32  1  0
 26 30  1  0
 26 25  2  0
 27 26  1  0
 28 23  1  0
 31 27  1  0
 32 34  2  0
 32 35  1  0
 33 32  2  0
 35 36  1  0
 35 37  1  0
M  END
>  <minimizedAffinity>  (310) 
-8.50050545

$$$$

     RDKit          3D

 68 72  0  0  0  0  0  0  0  0999 V2000
  -24.8730  -28.3620   55.0610 C   0  0  0  0  0  0  0  0  0  0  0  0
  -26.0840  -27.5850   55.4850 C   0  0  0  0  0  0  0  0  0  0  0  0
  -25.9300  -26.1970   56.0320 C   0  0  0  0  0  0  0  0  0  0  0  0
  -24.5660  -25.5860   56.1550 C   0  0  0  0  0  0  0  0  0  0  0  0
  -23.3550  -26.3630   55.7300 C   0  0  0  0  0  0  0  0  0  0  0  0
  -23.5090  -27.7510   55.1840 C   0  0  0  0  0  0  0  0  0  0  0  0
  -27.0230  -28.0060   55.4010 H   0  0  0  0  0  0  0  0  0  0  0  0
  -26.7630  -25.6620   56.3240 H   0  0  0  0  0  0  0  0  0  0  0  0
  -24.4600  -24.6310   56.5310 H   0  0  0  0  0  0  0  0  0  0  0  0
  -22.6750  -28.2860   54.8920 H   0  0  0  0  0  0  0  0  0  0  0  0
  -24.6970  -31.7620   53.1970 N   0  0  0  0  0  0  0  0  0  0  0  0
  -25.8280  -32.0120   54.1500 C   0  0  0  0  0  3  0  0  0  0  0  0
  -26.0310  -30.7690   54.9640 C   0  0  0  0  0  0  0  0  0  0  0  0
  -25.0260  -29.7510   54.5140 C   0  0  0  0  0  0  0  0  0  0  0  0
  -24.2010  -30.3640   53.4220 N   0  0  0  0  0  0  0  0  0  0  0  0
  -26.3710  -32.8860   54.2310 H   0  0  0  0  0  0  0  0  0  0  0  0
  -27.0600  -30.5780   56.0390 C   0  0  0  0  0  0  0  0  0  0  0  0
  -26.7120  -30.8660   57.4700 C   0  0  0  0  0  0  0  0  0  0  0  0
  -27.7400  -30.6750   58.5440 C   0  0  0  0  0  0  0  0  0  0  0  0
  -29.1160  -30.1950   58.1900 N   0  0  0  0  0  0  0  0  0  0  0  0
  -29.4640  -29.9070   56.7600 C   0  0  0  0  0  0  0  0  0  0  0  0
  -30.7290  -29.4260   56.1110 N   0  0  0  0  0  0  0  0  0  0  0  0
  -30.4820  -29.3200   54.6350 C   0  0  0  0  0  0  0  0  0  0  0  0
  -29.0650  -29.7360   54.3720 C   0  0  0  0  0  0  0  0  0  0  0  0
  -28.4360  -30.0980   55.6840 C   0  0  0  0  0  0  0  0  0  0  0  0
  -25.7650  -31.1960   57.7130 H   0  0  0  0  0  0  0  0  0  0  0  0
  -27.5010  -30.8730   59.5290 H   0  0  0  0  0  0  0  0  0  0  0  0
  -31.5720  -29.2170   56.5730 H   0  0  0  0  0  0  0  0  0  0  0  0
  -31.1660  -29.0150   53.9260 H   0  0  0  0  0  0  0  0  0  0  0  0
  -28.6040  -29.7670   53.4480 H   0  0  0  0  0  0  0  0  0  0  0  0
  -24.1560  -32.7380   52.1940 C   0  0  0  0  0  3  0  0  0  0  0  0
  -24.5840  -32.7910   51.2150 H   0  0  0  0  0  0  0  0  0  0  0  0
  -24.9700  -32.0950   51.9290 H   0  0  0  0  0  0  0  0  0  0  0  0
  -23.0160  -33.6400   52.5640 C   0  0  0  0  0  0  0  0  0  0  0  0
  -22.5890  -33.5870   53.5430 H   0  0  0  0  0  0  0  0  0  0  0  0
  -22.6310  -34.3360   51.8490 H   0  0  0  0  0  0  0  0  0  0  0  0
  -22.2030  -34.2830   52.8290 H   0  0  0  0  0  0  0  0  0  0  0  0
  -21.9910  -25.7520   55.8530 N   0  0  0  0  0  0  0  0  0  0  0  0
  -20.7700  -26.6200   55.7780 C   0  0  0  0  0  0  0  0  0  0  0  0
  -20.9140  -28.1000   55.5810 O   0  0  0  0  0  0  0  0  0  0  0  0
  -19.4060  -26.0090   55.9010 N   0  0  0  0  0  0  0  0  0  0  0  0
  -21.8960  -24.7800   55.9820 H   0  0  0  0  0  0  0  0  0  0  0  0
  -19.3110  -25.0380   56.0300 H   0  0  0  0  0  0  0  0  0  0  0  0
  -18.1850  -26.8780   55.8260 C   0  0  0  0  0  0  0  0  0  0  0  0
  -16.8370  -26.3070   56.1530 C   0  0  0  0  0  0  0  0  0  0  0  0
  -15.6170  -27.1760   56.0780 C   0  0  0  0  0  0  0  0  0  0  0  0
  -15.7440  -28.6160   55.6770 C   0  0  0  0  0  0  0  0  0  0  0  0
  -17.0920  -29.1860   55.3500 C   0  0  0  0  0  0  0  0  0  0  0  0
  -18.3130  -28.3180   55.4250 C   0  0  0  0  0  0  0  0  0  0  0  0
  -16.7490  -25.3170   56.4290 H   0  0  0  0  0  0  0  0  0  0  0  0
  -14.6890  -26.7830   56.3030 H   0  0  0  0  0  0  0  0  0  0  0  0
  -17.1800  -30.1770   55.0740 H   0  0  0  0  0  0  0  0  0  0  0  0
  -19.2410  -28.7110   55.2000 H   0  0  0  0  0  0  0  0  0  0  0  0
  -14.5240  -29.4840   55.6020 O   0  0  0  0  0  0  0  0  0  0  0  0
  -14.5640  -30.8820   56.1440 C   0  0  0  0  0  0  0  0  0  0  0  0
  -15.1690  -31.6240   55.6660 H   0  0  0  0  0  0  0  0  0  0  0  0
  -14.5930  -31.8790   56.5300 H   0  0  0  0  0  0  0  0  0  0  0  0
  -13.7560  -31.2410   57.3560 C   0  0  0  0  0  0  0  0  0  0  0  0
  -14.2550  -30.8790   58.7240 C   0  0  0  0  0  0  0  0  0  0  0  0
  -13.4480  -31.2370   59.9360 C   0  0  0  0  0  0  0  0  0  0  0  0
  -12.1410  -31.9570   59.7800 C   0  0  0  0  0  0  0  0  0  0  0  0
  -11.6420  -32.3190   58.4130 C   0  0  0  0  0  0  0  0  0  0  0  0
  -12.4500  -31.9610   57.2010 C   0  0  0  0  0  0  0  0  0  0  0  0
  -15.1540  -30.3840   58.8310 H   0  0  0  0  0  0  0  0  0  0  0  0
  -13.7910  -30.9880   60.8770 H   0  0  0  0  0  0  0  0  0  0  0  0
  -11.5850  -32.2040   60.6140 H   0  0  0  0  0  0  0  0  0  0  0  0
  -10.7430  -32.8150   58.3050 H   0  0  0  0  0  0  0  0  0  0  0  0
  -12.1060  -32.2100   56.2600 H   0  0  0  0  0  0  0  0  0  0  0  0
  1  6  2  0
  1  2  1  0
  2  3  2  0
  3  4  1  0
  3  8  1  0
  4  9  1  0
  5 38  1  0
  5  4  2  0
  6  5  1  0
  7  2  1  0
 10  6  1  0
 11 15  2  0
 11 12  1  0
 12 16  1  0
 12 13  1  0
 13 17  1  0
 14 13  2  0
 14  1  1  0
 15 14  1  0
 17 18  1  0
 18 26  1  0
 18 19  2  0
 19 27  1  0
 20 19  1  0
 21 20  2  0
 22 28  1  0
 22 21  1  0
 23 22  1  0
 24 23  2  0
 24 25  1  0
 25 17  2  0
 25 21  1  0
 29 23  1  0
 30 24  1  0
 31 34  1  0
 32 31  1  0
 33 31  1  0
 34 37  1  0
 34 35  1  0
 36 34  1  0
 38 42  1  0
 39 38  1  0
 39 41  1  0
 40 39  2  0
 41 43  1  0
 44 41  1  0
 44 45  1  0
 45 50  1  0
 46 45  2  0
 46 51  1  0
 47 46  1  0
 48 49  1  0
 48 47  2  0
 49 44  2  0
 52 48  1  0
 53 49  1  0
 54 47  1  0
 54 55  1  0
 55 57  1  0
 55 58  1  0
 56 55  1  0
 58 59  1  0
 59 64  1  0
 59 60  2  0
 60 65  1  0
 61 60  1  0
 61 66  1  0
 62 61  2  0
 63 58  2  0
 63 62  1  0
 67 62  1  0
 68 63  1  0
M  END
>  <minimizedAffinity>  (311) 
-10.7344713

$$$$

     RDKit          3D

 48 44  0  0  0  0  0  0  0  0999 V2000
  -18.9680  -30.4730   53.6240 C   0  0  0  0  0  0  0  0  0  0  0  0
  -18.7510  -29.2430   54.4550 C   0  0  0  0  0  0  0  0  0  0  0  0
  -17.4080  -29.3600   55.1140 S   0  0  0  0  0  0  0  0  0  0  0  0
  -16.7960  -30.6620   54.6900 C   0  0  0  0  0  0  0  0  0  0  0  0
  -17.7600  -31.3500   53.7690 C   0  0  0  0  0  0  0  0  0  0  0  0
  -17.4140  -32.6860   53.1820 C   0  0  0  0  0  3  0  0  0  0  0  0
  -16.1030  -33.3350   53.5160 C   0  0  0  0  0  2  0  0  0  0  0  0
  -15.1390  -32.6470   54.4370 C   0  0  0  0  0  2  0  0  0  0  0  0
  -15.4860  -31.3110   55.0240 N   0  0  0  0  0  1  0  0  0  0  0  0
  -14.5220  -30.6230   55.9450 C   0  0  0  0  0  1  0  0  0  0  0  0
  -14.8680  -29.2870   56.5320 O   0  0  0  0  0  1  0  0  0  0  0  0
  -18.1010  -33.1770   52.5250 H   0  0  0  0  0  0  0  0  0  0  0  0
  -17.1660  -33.6390   52.7640 H   0  0  0  0  0  0  0  0  0  0  0  0
  -15.8550  -34.2880   53.0970 H   0  0  0  0  0  0  0  0  0  0  0  0
  -15.1680  -33.7970   53.7540 H   0  0  0  0  0  0  0  0  0  0  0  0
  -14.2040  -33.1100   54.6750 H   0  0  0  0  0  0  0  0  0  0  0  0
  -14.4510  -32.1560   55.0940 H   0  0  0  0  0  0  0  0  0  0  0  0
  -13.2110  -31.2720   56.2790 C   0  0  0  0  0 15  0  0  0  0  0  0
  -11.7690  -31.5300   55.9550 C   0  0  0  0  0  2  0  0  0  0  0  0
  -12.3820  -32.1370   57.1810 C   0  0  0  0  0  3  0  0  0  0  0  0
  -12.2760  -31.7350   56.5170 H   0  0  0  0  0  0  0  0  0  0  0  0
  -10.9230  -31.3860   55.3160 H   0  0  0  0  0  0  0  0  0  0  0  0
  -10.9790  -32.0890   56.4110 H   0  0  0  0  0  0  0  0  0  0  0  0
  -12.2930  -32.7440   58.0580 H   0  0  0  0  0  0  0  0  0  0  0  0
  -13.3520  -32.1160   57.6310 H   0  0  0  0  0  0  0  0  0  0  0  0
  -19.7080  -28.0970   54.6010 N   0  0  0  0  0  0  0  0  0  0  0  0
  -20.6010  -28.0150   55.8030 C   0  0  0  0  0  0  0  0  0  0  0  0
  -20.5370  -29.0780   56.8590 O   0  0  0  0  0  0  0  0  0  0  0  0
  -19.7490  -27.4000   53.9070 H   0  0  0  0  0  0  0  0  0  0  0  0
  -21.5570  -26.8690   55.9490 C   0  0  0  0  0  0  0  0  0  0  0  0
  -21.0450  -25.5040   56.3040 C   0  0  0  0  0  0  0  0  0  0  0  0
  -22.0020  -24.3590   56.4500 C   0  0  0  0  0  0  0  0  0  0  0  0
  -23.4710  -24.5770   56.2420 C   0  0  0  0  0  0  0  0  0  0  0  0
  -23.9840  -25.9410   55.8870 C   0  0  0  0  0  0  0  0  0  0  0  0
  -25.4530  -26.1600   55.6780 C   0  0  0  0  0  0  0  0  0  0  0  0
  -25.9650  -27.5240   55.3240 C   0  0  0  0  0  0  0  0  0  0  0  0
  -25.0080  -28.6700   55.1770 C   0  0  0  0  0  0  0  0  0  0  0  0
  -23.5390  -28.4520   55.3860 C   0  0  0  0  0  0  0  0  0  0  0  0
  -23.0270  -27.0870   55.7410 C   0  0  0  0  0  0  0  0  0  0  0  0
  -20.0340  -25.3540   56.4480 H   0  0  0  0  0  0  0  0  0  0  0  0
  -21.6490  -23.4200   56.6950 H   0  0  0  0  0  0  0  0  0  0  0  0
  -24.1300  -23.7890   56.3420 H   0  0  0  0  0  0  0  0  0  0  0  0
  -26.1110  -25.3720   55.7790 H   0  0  0  0  0  0  0  0  0  0  0  0
  -26.9760  -27.6750   55.1800 H   0  0  0  0  0  0  0  0  0  0  0  0
  -25.3610  -29.6090   54.9330 H   0  0  0  0  0  0  0  0  0  0  0  0
  -22.8810  -29.2400   55.2850 H   0  0  0  0  0  0  0  0  0  0  0  0
  -21.3940  -31.0730   51.9630 N   0  0  0  0  0  1  0  0  0  0  0  0
  -20.1810  -30.7730   52.7930 C   0  0  0  0  0  2  0  0  0  0  0  0
  1  5  1  0
  1  2  2  0
  2 26  1  0
  2  3  1  0
  4  9  1  0
  4  3  1  0
  5  4  2  0
  6  5  1  0
  7 15  1  0
  8 16  1  0
  8 17  1  0
 10 11  1  0
 12  6  1  0
 13  6  1  0
 14  7  1  0
 19 23  1  0
 20 25  1  0
 20 24  1  0
 21 20  1  0
 22 19  1  0
 26 27  1  0
 27 30  1  0
 27 28  2  0
 29 26  1  0
 30 31  1  0
 31 40  1  0
 31 32  2  0
 32 41  1  0
 33 42  1  0
 33 32  1  0
 34 33  2  0
 35 43  1  0
 35 34  1  0
 36 35  2  0
 37 36  1  0
 37 38  2  0
 38 39  1  0
 39 34  1  0
 39 30  2  0
 44 36  1  0
 45 37  1  0
 46 38  1  0
 47 48  1  0
 48  1  1  0
M  END
>  <minimizedAffinity>  (312) 
-9.25211048

$$$$

     RDKit          3D

 41 44  0  0  1  0  0  0  0  0999 V2000
  -20.5400  -27.6010   55.6700 N   0  0  0  0  0  0  0  0  0  0  0  0
  -20.6860  -29.0920   55.5860 N   0  0  0  0  0  0  0  0  0  0  0  0
  -19.3280  -29.6770   55.3390 C   0  0  0  0  0  0  0  0  0  0  0  0
  -18.3420  -28.5480   55.2700 C   0  0  0  0  0  0  0  0  0  0  0  0
  -16.8590  -28.5230   55.0470 C   0  0  0  0  0  3  0  0  0  0  0  0
  -16.1250  -27.2150   55.0290 N   0  0  0  0  0  0  0  0  0  0  0  0
  -16.8750  -25.9320   55.2340 C   0  0  0  0  0  0  0  0  0  0  0  0
  -18.3580  -25.9570   55.4560 N   0  0  0  0  0  2  0  0  0  0  0  0
  -19.0920  -27.2650   55.4750 C   0  0  0  0  0  0  0  0  0  0  0  0
  -19.1090  -30.6800   55.2350 H   0  0  0  0  0  0  0  0  0  0  0  0
  -16.3700  -25.0320   55.2210 H   0  0  0  0  0  0  0  0  0  0  0  0
  -24.1790  -26.0300   55.8740 C   0  0  0  0  0  0  0  0  0  0  0  0
  -23.8650  -24.6540   56.3830 C   0  0  0  0  0  0  0  0  0  0  0  0
  -22.4440  -24.2600   56.6550 C   0  0  0  0  0  0  0  0  0  0  0  0
  -21.3350  -25.2430   56.4170 C   0  0  0  0  0  0  0  0  0  0  0  0
  -21.6490  -26.6190   55.9080 C   0  0  0  0  0  0  0  0  0  0  0  0
  -23.0700  -27.0120   55.6360 C   0  0  0  0  0  0  0  0  0  0  0  0
  -24.6280  -23.9780   56.5470 H   0  0  0  0  0  0  0  0  0  0  0  0
  -22.2280  -23.3150   57.0050 H   0  0  0  0  0  0  0  0  0  0  0  0
  -20.3580  -24.9720   56.6040 H   0  0  0  0  0  0  0  0  0  0  0  0
  -23.2860  -27.9580   55.2860 H   0  0  0  0  0  0  0  0  0  0  0  0
  -25.6010  -26.4230   55.6020 O   0  0  0  0  0  0  0  0  0  0  0  0
  -25.9370  -27.8520   55.2920 C   0  0  0  0  0  0  0  0  0  0  0  0
  -25.1620  -28.5900   55.2650 H   0  0  0  0  0  0  0  0  0  0  0  0
  -26.9500  -28.1330   55.0980 H   0  0  0  0  0  0  0  0  0  0  0  0
  -26.1770  -28.8710   55.0710 H   0  0  0  0  0  0  0  0  0  0  0  0
  -16.1090  -29.8060   54.8420 N   0  0  0  0  0  0  0  0  0  0  0  0
  -16.3250  -30.3860   54.0760 H   0  0  0  0  0  0  0  0  0  0  0  0
  -15.0310  -30.2070   55.8050 N   0  0  0  0  0  0  0  0  0  0  0  0
  -15.2970  -31.2710   56.8290 C   0  0  0  0  0  0  0  0  0  0  0  0
  -16.2220  -31.7270   56.8700 H   0  0  0  0  0  0  0  0  0  0  0  0
  -14.2190  -31.6710   57.7910 C   0  0  0  0  0  0  0  0  0  0  0  0
  -13.2750  -32.7830   57.4400 C   0  0  0  0  0  0  0  0  0  0  0  0
  -12.1970  -33.1840   58.4030 C   0  0  0  0  0  0  0  0  0  0  0  0
  -12.0620  -32.4720   59.7170 N   0  0  0  0  0  0  0  0  0  0  0  0
  -13.0060  -31.3610   60.0680 C   0  0  0  0  0  0  0  0  0  0  0  0
  -14.0840  -30.9600   59.1050 C   0  0  0  0  0  0  0  0  0  0  0  0
  -13.3670  -33.2720   56.5360 H   0  0  0  0  0  0  0  0  0  0  0  0
  -11.5470  -33.9490   58.1620 H   0  0  0  0  0  0  0  0  0  0  0  0
  -12.9140  -30.8710   60.9720 H   0  0  0  0  0  0  0  0  0  0  0  0
  -14.7340  -30.1950   59.3470 H   0  0  0  0  0  0  0  0  0  0  0  0
  1 16  1  0
  2  1  1  0
  3  2  2  0
  4  3  1  0
  4  9  2  0
  5 27  1  0
  5  4  1  0
  6  5  1  0
  6  7  2  0
  7  8  1  0
  8  9  1  0
  9  1  1  0
 10  3  1  0
 11  7  1  0
 12 13  1  0
 13 18  1  0
 13 14  2  0
 14 19  1  0
 15 20  1  0
 15 14  1  0
 16 15  2  0
 17 12  2  0
 17 16  1  0
 21 17  1  0
 22 12  1  0
 23 22  1  0
 24 23  1  0
 25 23  1  0
 26 23  1  0
 27 29  1  0
 28 27  1  0
 29 30  2  0
 30 31  1  0
 30 32  1  0
 32 37  1  0
 33 32  2  0
 33 34  1  0
 34 35  2  0
 35 36  1  0
 36 40  1  0
 37 41  1  0
 37 36  2  0
 38 33  1  0
 39 34  1  0
M  END
>  <minimizedAffinity>  (313) 
-8.86639786

$$$$

     RDKit          3D

 58 59  0  0  0  0  0  0  0  0999 V2000
  -22.7700  -25.9810   55.9040 C   0  0  0  0  0  0  0  0  0  0  0  0
  -23.1320  -24.5500   56.1740 C   0  0  0  0  0  0  0  0  0  0  0  0
  -22.0540  -23.5400   56.4350 N   0  0  0  0  0  0  0  0  0  0  0  0
  -20.6140  -23.9610   56.4250 C   0  0  0  0  0  0  0  0  0  0  0  0
  -20.2520  -25.3910   56.1550 N   0  0  0  0  0  0  0  0  0  0  0  0
  -21.3300  -26.4010   55.8940 C   0  0  0  0  0  0  0  0  0  0  0  0
  -20.9680  -27.8310   55.6240 N   0  0  0  0  0  0  0  0  0  0  0  0
  -24.1220  -24.2610   56.1800 H   0  0  0  0  0  0  0  0  0  0  0  0
  -19.8720  -23.2660   56.6050 H   0  0  0  0  0  0  0  0  0  0  0  0
  -21.6750  -28.4940   55.4530 H   0  0  0  0  0  0  0  0  0  0  0  0
  -19.5280  -28.2520   55.6150 C   0  0  0  0  0  0  0  0  0  0  0  0
  -19.1720  -29.7080   55.6730 C   0  0  0  0  0  0  0  0  0  0  0  0
  -17.7320  -30.1280   55.6630 C   0  0  0  0  0  0  0  0  0  0  0  0
  -16.6490  -29.0930   55.5960 C   0  0  0  0  0  0  0  0  0  0  0  0
  -17.0050  -27.6370   55.5380 C   0  0  0  0  0  0  0  0  0  0  0  0
  -15.9220  -26.6020   55.4700 Cl  0  0  0  0  0  0  0  0  0  0  0  0
  -18.4450  -27.2170   55.5470 C   0  0  0  0  0  0  0  0  0  0  0  0
  -19.9170  -30.4200   55.7190 H   0  0  0  0  0  0  0  0  0  0  0  0
  -17.4870  -31.1300   55.7030 H   0  0  0  0  0  0  0  0  0  0  0  0
  -18.6900  -26.2150   55.5070 H   0  0  0  0  0  0  0  0  0  0  0  0
  -15.2090  -29.5140   55.5860 O   0  0  0  0  0  0  0  0  0  0  0  0
  -14.8330  -30.9090   55.9870 C   0  0  0  0  0  0  0  0  0  0  0  0
  -15.1790  -31.7430   55.4120 H   0  0  0  0  0  0  0  0  0  0  0  0
  -14.5640  -31.9050   56.2730 H   0  0  0  0  0  0  0  0  0  0  0  0
  -13.9700  -31.1370   57.1930 C   0  0  0  0  0  0  0  0  0  0  0  0
  -14.5420  -30.9600   58.5680 C   0  0  0  0  0  0  0  0  0  0  0  0
  -13.6800  -31.1880   59.7740 C   0  0  0  0  0  0  0  0  0  0  0  0
  -12.2450  -31.5910   59.6050 C   0  0  0  0  0  0  0  0  0  0  0  0
  -11.6730  -31.7670   58.2300 C   0  0  0  0  0  0  0  0  0  0  0  0
  -10.2380  -32.1710   58.0600 F   0  0  0  0  0  0  0  0  0  0  0  0
  -12.5350  -31.5400   57.0240 C   0  0  0  0  0  0  0  0  0  0  0  0
  -15.5300  -30.6830   58.6850 H   0  0  0  0  0  0  0  0  0  0  0  0
  -14.0740  -31.0670   60.7210 H   0  0  0  0  0  0  0  0  0  0  0  0
  -11.6520  -31.7480   60.4350 H   0  0  0  0  0  0  0  0  0  0  0  0
  -12.1410  -31.6610   56.0770 H   0  0  0  0  0  0  0  0  0  0  0  0
  -24.9260  -28.0000   55.3820 C   0  0  0  0  0  0  0  0  0  0  0  0
  -23.8480  -26.9900   55.6430 C   0  0  0  0  0  0  0  0  0  0  0  0
  -27.8740  -29.9600   53.5880 C   0  0  0  0  0  1  0  0  0  0  0  0
  -28.1600  -31.0300   54.6000 C   0  0  0  0  0  2  0  0  0  0  0  0
  -27.3670  -31.0900   55.8720 C   0  0  0  0  0  0  0  0  0  0  0  0
  -26.2890  -30.0800   56.1330 C   0  0  0  0  0  0  0  0  0  0  0  0
  -26.0040  -29.0100   55.1210 C   0  0  0  0  0  0  0  0  0  0  0  0
  -26.7960  -28.9500   53.8490 C   0  0  0  0  0  0  0  0  0  0  0  0
  -28.9020  -31.7250   54.4200 H   0  0  0  0  0  0  0  0  0  0  0  0
  -27.5640  -31.8270   56.5680 H   0  0  0  0  0  0  0  0  0  0  0  0
  -25.7440  -30.1220   57.0080 H   0  0  0  0  0  0  0  0  0  0  0  0
  -26.6000  -28.2130   53.1530 H   0  0  0  0  0  0  0  0  0  0  0  0
  -28.6670  -29.8990   52.3160 C   0  0  0  0  0  0  0  0  0  0  0  0
  -28.6170  -30.7070   51.6160 H   0  0  0  0  0  0  0  0  0  0  0  0
  -28.0510  -30.7500   52.5230 H   0  0  0  0  0  0  0  0  0  0  0  0
  -30.9290  -28.6460   52.5610 C   0  0  0  0  0  0  0  0  0  0  0  0
  -31.4670  -29.7770   53.3870 O   0  0  0  0  0  0  0  0  0  0  0  0
  -29.5290  -28.7070   52.0260 N   0  0  0  0  0  4  0  0  0  0  0  0
  -29.1770  -27.9640   51.4840 H   0  0  0  0  0  0  0  0  0  0  0  0
  -31.7920  -27.4530   52.2710 C   0  0  0  0  0  0  0  0  0  0  0  0
  -31.4080  -26.6460   51.6820 H   0  0  0  0  0  0  0  0  0  0  0  0
  -32.7900  -27.4100   52.6520 H   0  0  0  0  0  0  0  0  0  0  0  0
  -32.4070  -26.6030   52.0630 H   0  0  0  0  0  0  0  0  0  0  0  0
  1  2  2  0
  2  8  1  0
  2  3  1  0
  4  3  2  0
  4  9  1  0
  5  4  1  0
  6  1  1  0
  6  5  2  0
  7  6  1  0
 10  7  1  0
 11  7  1  0
 11 12  1  0
 12 18  1  0
 13 12  2  0
 13 19  1  0
 14 13  1  0
 15 17  1  0
 15 14  2  0
 16 15  1  0
 17 11  2  0
 20 17  1  0
 21 14  1  0
 21 22  1  0
 22 24  1  0
 22 25  1  0
 23 22  1  0
 25 26  1  0
 26 32  1  0
 26 27  2  0
 27 33  1  0
 28 27  1  0
 28 34  1  0
 29 28  2  0
 30 29  1  0
 31 25  2  0
 31 29  1  0
 35 31  1  0
 36 37  3  0
 37  1  1  0
 38 43  1  0
 39 40  1  0
 40 41  2  0
 40 45  1  0
 41 46  1  0
 42 36  1  0
 42 41  1  0
 43 42  2  0
 44 39  1  0
 47 43  1  0
 48 50  1  0
 49 48  1  0
 51 52  2  0
 53 48  2  0
 53 51  1  0
 54 53  1  0
 55 51  1  0
 55 57  1  0
 56 55  1  0
 58 55  1  0
M  END
>  <minimizedAffinity>  (314) 
-11.0129824

$$$$

     RDKit          3D

 42 45  0  0  0  0  0  0  0  0999 V2000
  -17.8450  -28.5570   54.8220 C   0  0  0  0  0  0  0  0  0  0  0  0
  -17.0450  -27.3130   55.0690 C   0  0  0  0  0  0  0  0  0  0  0  0
  -15.6240  -27.4160   55.5380 C   0  0  0  0  0  0  0  0  0  0  0  0
  -15.0040  -28.7640   55.7600 N   0  0  0  0  0  0  0  0  0  0  0  0
  -15.8040  -30.0080   55.5130 C   0  0  0  0  0  0  0  0  0  0  0  0
  -15.1840  -31.3550   55.7350 N   0  0  0  0  0  0  0  0  0  0  0  0
  -17.2250  -29.9040   55.0440 N   0  0  0  0  0  0  0  0  0  0  0  0
  -17.4720  -26.3860   54.9160 H   0  0  0  0  0  0  0  0  0  0  0  0
  -15.0730  -26.5600   55.7080 H   0  0  0  0  0  0  0  0  0  0  0  0
  -15.7090  -32.1710   55.5730 H   0  0  0  0  0  0  0  0  0  0  0  0
  -22.8120  -26.0570   55.6720 C   0  0  0  0  0  0  0  0  0  0  0  0
  -21.5460  -25.8410   56.4480 C   0  0  0  0  0  0  0  0  0  0  0  0
  -20.3040  -26.5980   56.0820 C   0  0  0  0  0  0  0  0  0  0  0  0
  -20.3270  -27.5710   54.9410 C   0  0  0  0  0  0  0  0  0  0  0  0
  -19.2670  -28.4530   54.3530 C   0  0  0  0  0  0  0  0  0  0  0  0
  -19.8770  -29.2150   53.2130 C   0  0  0  0  0  0  0  0  0  0  0  0
  -21.3140  -28.8030   53.0970 N   0  0  0  0  0  0  0  0  0  0  0  0
  -21.5920  -27.7860   54.1650 N   0  0  0  0  0  0  0  0  0  0  0  0
  -22.8350  -27.0290   54.5300 N   0  0  0  0  0  0  0  0  0  0  0  0
  -21.5300  -25.1720   57.2340 H   0  0  0  0  0  0  0  0  0  0  0  0
  -19.4330  -26.4490   56.6160 H   0  0  0  0  0  0  0  0  0  0  0  0
  -19.3920  -29.9020   52.6140 H   0  0  0  0  0  0  0  0  0  0  0  0
  -24.0540  -25.3000   56.0380 O   0  0  0  0  0  0  0  0  0  0  0  0
  -25.3860  -25.9880   56.0110 C   0  0  0  0  0  0  0  0  0  0  0  0
  -25.4510  -27.0190   55.7320 H   0  0  0  0  0  0  0  0  0  0  0  0
  -26.2730  -25.4480   56.2720 H   0  0  0  0  0  0  0  0  0  0  0  0
  -26.3370  -26.4790   55.9930 H   0  0  0  0  0  0  0  0  0  0  0  0
  -13.7620  -31.4590   56.2050 C   0  0  0  0  0  0  0  0  0  0  0  0
  -12.6410  -31.4410   55.2090 C   0  0  0  0  0  0  0  0  0  0  0  0
  -11.2200  -31.5450   55.6780 C   0  0  0  0  0  0  0  0  0  0  0  0
  -10.9210  -31.6660   57.1430 C   0  0  0  0  0  0  0  0  0  0  0  0
  -12.0430  -31.6830   58.1390 C   0  0  0  0  0  0  0  0  0  0  0  0
  -13.4630  -31.5800   57.6690 C   0  0  0  0  0  0  0  0  0  0  0  0
  -12.8470  -31.3580   54.2010 H   0  0  0  0  0  0  0  0  0  0  0  0
  -10.4490  -31.5320   54.9930 H   0  0  0  0  0  0  0  0  0  0  0  0
   -9.9430  -31.7370   57.4660 H   0  0  0  0  0  0  0  0  0  0  0  0
  -14.2350  -31.5920   58.3550 H   0  0  0  0  0  0  0  0  0  0  0  0
  -11.7430  -31.8040   59.6030 O   0  0  0  0  0  0  0  0  0  0  0  0
  -11.8300  -30.5980   60.4890 C   0  0  0  0  0  0  0  0  0  0  0  0
  -11.9180  -29.3910   61.3760 F   0  0  0  0  0  0  0  0  0  0  0  0
  -10.4220  -30.2290   60.1280 F   0  0  0  0  0  0  0  0  0  0  0  0
  -13.2380  -30.9660   60.8510 F   0  0  0  0  0  0  0  0  0  0  0  0
  1  7  2  0
  1  2  1  0
  2  3  2  0
  3  9  1  0
  3  4  1  0
  5  6  1  0
  5  4  2  0
  6 28  1  0
  7  5  1  0
  8  2  1  0
 10  6  1  0
 11 23  1  0
 11 12  1  0
 12 20  1  0
 13 12  2  0
 13 21  1  0
 14 13  1  0
 15  1  1  0
 15 14  2  0
 16 15  1  0
 17 16  2  0
 17 18  1  0
 18 19  1  0
 18 14  1  0
 19 11  2  0
 22 16  1  0
 24 23  1  0
 24 26  1  0
 25 24  1  0
 27 24  1  0
 28 33  1  0
 29 30  1  0
 29 28  2  0
 30 31  2  0
 31 36  1  0
 31 32  1  0
 32 38  1  0
 33 32  2  0
 33 37  1  0
 34 29  1  0
 35 30  1  0
 38 39  1  0
 39 42  1  0
 39 40  1  0
 41 39  1  0
M  END
>  <minimizedAffinity>  (315) 
-8.53794289

$$$$

     RDKit          3D

 33 34  0  0  0  0  0  0  0  0999 V2000
  -17.2640  -27.4900   54.8220 C   0  0  0  0  0  3  0  0  0  0  0  0
  -16.6710  -28.7250   54.2130 N   0  0  0  0  0  0  0  0  0  0  0  0
  -17.5660  -29.8310   53.7370 C   0  0  0  0  0  0  0  0  0  0  0  0
  -19.0540  -29.7000   53.8710 C   0  0  0  0  0  0  0  0  0  0  0  0
  -19.6480  -28.4650   54.4800 C   0  0  0  0  0  0  0  0  0  0  0  0
  -18.7520  -27.3590   54.9560 C   0  0  0  0  0  0  0  0  0  0  0  0
  -19.6190  -26.2670   55.5110 N   0  0  0  0  0  0  0  0  0  0  0  0
  -21.0490  -26.6980   55.3770 C   0  0  0  0  0  0  0  0  0  0  0  0
  -21.0680  -28.0560   54.7400 N   0  0  0  0  0  0  0  0  0  0  0  0
  -17.1580  -30.6810   53.3180 H   0  0  0  0  0  0  0  0  0  0  0  0
  -19.6700  -30.4610   53.5430 H   0  0  0  0  0  0  0  0  0  0  0  0
  -22.2510  -25.9100   55.8060 C   0  0  0  0  0  0  0  0  0  0  0  0
  -23.6640  -26.4110   55.8520 N   0  0  0  0  0  0  0  0  0  0  0  0
  -24.5370  -25.2920   56.3380 O   0  0  0  0  0  0  0  0  0  0  0  0
  -23.6640  -24.0990   56.5920 N   0  0  0  0  0  0  0  0  0  0  0  0
  -22.2500  -24.4800   56.2630 C   0  0  0  0  0  0  0  0  0  0  0  0
  -21.0490  -23.5900   56.3720 N   0  0  0  0  0  0  0  0  0  0  0  0
  -20.1580  -23.9330   56.1320 H   0  0  0  0  0  0  0  0  0  0  0  0
  -21.1500  -22.6620   56.6840 H   0  0  0  0  0  0  0  0  0  0  0  0
  -16.3690  -26.3840   55.2980 C   0  0  0  0  0  3  0  0  0  0  0  0
  -16.0770  -25.6050   54.6250 H   0  0  0  0  0  0  0  0  0  0  0  0
  -16.7150  -26.3930   54.2860 H   0  0  0  0  0  0  0  0  0  0  0  0
  -15.8830  -26.3710   56.7170 C   0  0  0  0  0  0  0  0  0  0  0  0
  -16.1750  -27.1500   57.3900 H   0  0  0  0  0  0  0  0  0  0  0  0
  -15.2440  -25.5820   57.0570 H   0  0  0  0  0  0  0  0  0  0  0  0
  -15.5360  -26.3620   57.7300 H   0  0  0  0  0  0  0  0  0  0  0  0
  -22.2900  -28.8640   54.4200 C   0  0  0  0  0  0  0  0  0  0  0  0
  -22.6800  -29.5530   55.1400 H   0  0  0  0  0  0  0  0  0  0  0  0
  -23.1620  -29.4400   54.1920 H   0  0  0  0  0  0  0  0  0  0  0  0
  -22.9670  -28.7060   53.0910 C   0  0  0  0  0  0  0  0  0  0  0  0
  -23.8380  -29.2820   52.8630 H   0  0  0  0  0  0  0  0  0  0  0  0
  -22.5770  -28.0170   52.3710 H   0  0  0  0  0  0  0  0  0  0  0  0
  -23.4490  -28.5930   52.1430 H   0  0  0  0  0  0  0  0  0  0  0  0
  1  6  1  0
  2  1  2  0
  3  4  2  0
  3  2  1  0
  4  5  1  0
  5  9  1  0
  5  6  2  0
  6  7  1  0
  8  7  2  0
  8 12  1  0
  9  8  1  0
 10  3  1  0
 11  4  1  0
 12 13  2  0
 12 16  1  0
 13 14  1  0
 14 15  1  0
 16 17  1  0
 16 15  2  0
 17 19  1  0
 18 17  1  0
 20 23  1  0
 21 20  1  0
 22 20  1  0
 23 25  1  0
 23 24  1  0
 23 26  1  0
 27  9  1  0
 27 28  1  0
 29 27  1  0
 30 27  1  0
 31 30  1  0
 32 30  1  0
 33 30  1  0
M  END
>  <minimizedAffinity>  (316) 
-7.56555939

$$$$

     RDKit          3D

 72 69  0  0  0  0  0  0  0  0999 V2000
  -20.4930  -26.9220   55.5280 C   0  0  0  0  0  0  0  0  0  0  0  0
  -19.6120  -25.7550   55.8650 C   0  0  0  0  0  0  0  0  0  0  0  0
  -18.1850  -26.1940   55.7110 C   0  0  0  0  0  0  0  0  0  0  0  0
  -16.8860  -25.4700   55.9080 N   0  0  0  0  0  0  0  0  0  0  0  0
  -15.5870  -26.1830   55.6740 C   0  0  0  0  0  0  0  0  0  0  0  0
  -15.5880  -27.6200   55.2430 N   0  0  0  0  0  0  0  0  0  0  0  0
  -16.8870  -28.3440   55.0460 C   0  0  0  0  0  0  0  0  0  0  0  0
  -18.1850  -27.6310   55.2800 C   0  0  0  0  0  0  0  0  0  0  0  0
  -19.6120  -28.0810   55.1670 S   0  0  0  0  0  0  0  0  0  0  0  0
  -19.9310  -24.8170   56.1510 H   0  0  0  0  0  0  0  0  0  0  0  0
  -14.6930  -25.6850   55.8090 H   0  0  0  0  0  0  0  0  0  0  0  0
  -23.4930  -26.9340   55.5710 C   0  0  0  0  0  1  0  0  0  0  0  0
  -21.9930  -26.9280   55.5500 C   0  0  0  0  0  2  0  0  0  0  0  0
  -27.3000  -27.6850   55.4780 C   0  0  0  0  0  2  0  0  0  0  0  0
  -27.3020  -26.2140   55.7730 C   0  0  0  0  0  2  0  0  0  0  0  0
  -25.8760  -25.7540   55.8440 N   0  0  0  0  0  1  0  0  0  0  0  0
  -24.9930  -26.9400   55.5930 C   0  0  0  0  0  2  0  0  0  0  0  0
  -25.8730  -28.1340   55.3670 C   0  0  0  0  0  3  0  0  0  0  0  0
  -28.2540  -27.2120   55.5870 H   0  0  0  0  0  0  0  0  0  0  0  0
  -28.1680  -25.6010   55.9100 H   0  0  0  0  0  0  0  0  0  0  0  0
  -27.1360  -25.1770   55.9790 H   0  0  0  0  0  0  0  0  0  0  0  0
  -25.5620  -24.8010   56.0310 H   0  0  0  0  0  0  0  0  0  0  0  0
  -24.5090  -26.0040   55.7730 H   0  0  0  0  0  0  0  0  0  0  0  0
  -25.5410  -29.1300   55.1620 H   0  0  0  0  0  0  0  0  0  0  0  0
  -26.6290  -28.8780   55.2290 H   0  0  0  0  0  0  0  0  0  0  0  0
  -28.5120  -28.5550   55.3220 O   0  0  0  0  0  0  0  0  0  0  0  0
  -28.3440  -31.0660   55.9660 O   0  0  0  0  0  0  0  0  0  0  0  0
  -28.7680  -29.6660   56.2970 C   0  0  0  0  0  0  0  0  0  0  0  0
  -29.4480  -29.3770   57.6020 N   0  0  0  0  0  2  0  0  0  0  0  0
  -29.7040  -30.4880   58.5770 C   0  0  0  0  0  3  0  0  0  0  0  0
  -30.3840  -30.1980   59.8830 C   0  0  0  0  0  2  0  0  0  0  0  0
  -30.8080  -28.7980   60.2130 O   0  0  0  0  0  1  0  0  0  0  0  0
  -30.5520  -27.6870   59.2390 C   0  0  0  0  0  3  0  0  0  0  0  0
  -29.8720  -27.9760   57.9330 C   0  0  0  0  0  2  0  0  0  0  0  0
  -29.4010  -31.4870   58.3410 H   0  0  0  0  0  0  0  0  0  0  0  0
  -29.8860  -31.2800   59.2730 H   0  0  0  0  0  0  0  0  0  0  0  0
  -30.5660  -30.9900   60.5780 H   0  0  0  0  0  0  0  0  0  0  0  0
  -30.8680  -29.9920   60.8130 H   0  0  0  0  0  0  0  0  0  0  0  0
  -30.8540  -26.6880   59.4740 H   0  0  0  0  0  0  0  0  0  0  0  0
  -30.3690  -26.8940   58.5430 H   0  0  0  0  0  0  0  0  0  0  0  0
  -29.6890  -27.1840   57.2380 H   0  0  0  0  0  0  0  0  0  0  0  0
  -29.3870  -28.1830   57.0010 H   0  0  0  0  0  0  0  0  0  0  0  0
  -16.8870  -29.7800   54.6150 N   0  0  0  0  0  0  0  0  0  0  0  0
  -17.4790  -30.0750   53.8850 H   0  0  0  0  0  0  0  0  0  0  0  0
  -15.9860  -30.7680   55.2950 C   0  0  0  0  0  0  0  0  0  0  0  0
  -15.2720  -30.3850   56.5580 C   0  0  0  0  0  0  0  0  0  0  0  0
  -14.3720  -31.3730   57.2390 C   0  0  0  0  0  0  0  0  0  0  0  0
  -14.1850  -32.7430   56.6570 C   0  0  0  0  0  0  0  0  0  0  0  0
  -14.8990  -33.1250   55.3940 C   0  0  0  0  0  0  0  0  0  0  0  0
  -14.5220  -34.5380   55.0590 C   0  0  0  0  0  0  0  0  0  0  0  0
  -13.5750  -35.0290   56.1140 C   0  0  0  0  0  0  0  0  0  0  0  0
  -13.3670  -33.9190   57.1020 N   0  0  0  0  0  0  0  0  0  0  0  0
  -15.7990  -32.1380   54.7140 C   0  0  0  0  0  0  0  0  0  0  0  0
  -15.4010  -29.4430   56.9580 H   0  0  0  0  0  0  0  0  0  0  0  0
  -13.8800  -31.1100   58.1070 H   0  0  0  0  0  0  0  0  0  0  0  0
  -14.8560  -35.0770   54.2450 H   0  0  0  0  0  0  0  0  0  0  0  0
  -13.1430  -35.9650   56.1530 H   0  0  0  0  0  0  0  0  0  0  0  0
  -16.2910  -32.4010   53.8450 H   0  0  0  0  0  0  0  0  0  0  0  0
  -12.4940  -33.9760   58.3200 C   0  0  0  0  0  0  0  0  0  0  0  0
  -12.4520  -34.8700   58.9070 H   0  0  0  0  0  0  0  0  0  0  0  0
  -11.8710  -34.0170   59.1900 H   0  0  0  0  0  0  0  0  0  0  0  0
  -11.6800  -32.7800   58.7160 C   0  0  0  0  0  0  0  0  0  0  0  0
  -12.1630  -31.8710   59.8070 C   0  0  0  0  0  0  0  0  0  0  0  0
  -11.3490  -30.6750   60.2030 C   0  0  0  0  0  0  0  0  0  0  0  0
  -11.8320  -29.7660   61.2930 F   0  0  0  0  0  0  0  0  0  0  0  0
  -10.0510  -30.3890   59.5080 C   0  0  0  0  0  0  0  0  0  0  0  0
   -9.5670  -31.2980   58.4170 C   0  0  0  0  0  0  0  0  0  0  0  0
  -10.3820  -32.4940   58.0210 C   0  0  0  0  0  0  0  0  0  0  0  0
   -9.8980  -33.4030   56.9300 F   0  0  0  0  0  0  0  0  0  0  0  0
  -13.0570  -32.0690   60.2850 H   0  0  0  0  0  0  0  0  0  0  0  0
   -9.4910  -29.5660   59.7800 H   0  0  0  0  0  0  0  0  0  0  0  0
   -8.6740  -31.1010   57.9390 H   0  0  0  0  0  0  0  0  0  0  0  0
  1 13  1  0
  1  2  2  0
  2 10  1  0
  3  2  1  0
  3  4  1  0
  5 11  1  0
  5  4  2  0
  6  5  1  0
  7  6  2  0
  7  8  1  0
  8  3  2  0
  9  8  1  0
  9  1  1  0
 13 12  1  0
 14 19  1  0
 15 20  1  0
 15 21  1  0
 16 22  1  0
 17 23  1  0
 18 17  1  0
 24 18  1  0
 25 18  1  0
 26 14  1  0
 26 28  1  0
 27 28  2  0
 28 29  1  0
 29 30  1  0
 30 36  1  0
 31 37  1  0
 31 38  1  0
 33 39  1  0
 33 32  1  0
 35 30  1  0
 40 33  1  0
 41 34  1  0
 42 34  1  0
 43  7  1  0
 43 45  1  0
 44 43  1  0
 45 46  1  0
 46 54  1  0
 46 47  2  0
 47 55  1  0
 48 52  1  0
 48 47  1  0
 49 48  2  0
 50 49  1  0
 50 51  2  0
 51 57  1  0
 51 52  1  0
 52 59  1  0
 53 45  2  0
 53 49  1  0
 56 50  1  0
 58 53  1  0
 59 62  1  0
 59 60  1  0
 59 61  1  0
 62 63  1  0
 63 64  2  0
 63 70  1  0
 64 65  1  0
 66 71  1  0
 66 64  1  0
 67 66  2  0
 68 67  1  0
 68 62  2  0
 69 68  1  0
 72 67  1  0
M  END
>  <minimizedAffinity>  (317) 
-11.9838696

$$$$

     RDKit          3D

 53 56  0  0  0  0  0  0  0  0999 V2000
  -23.6730  -31.8190   53.4930 N   0  0  0  0  0  0  0  0  0  0  0  0
  -24.3520  -30.5780   53.9910 C   0  0  0  0  0  0  0  0  0  0  0  0
  -25.8470  -30.4700   53.9430 N   0  0  0  0  0  0  0  0  0  0  0  0
  -26.5260  -29.2280   54.4400 C   0  0  0  0  0  3  0  0  0  0  0  0
  -25.7100  -28.0940   54.9860 C   0  0  0  0  0  0  0  0  0  0  0  0
  -26.0960  -26.7560   55.5440 C   0  0  0  0  0  0  0  0  0  0  0  0
  -24.8400  -26.0380   55.9370 N   0  0  0  0  0  0  0  0  0  0  0  0
  -23.6770  -26.9310   55.6220 C   0  0  0  0  0  0  0  0  0  0  0  0
  -24.2140  -28.2020   55.0340 N   0  0  0  0  0  0  0  0  0  0  0  0
  -23.5360  -29.4440   54.5360 N   0  0  0  0  0  2  0  0  0  0  0  0
  -24.2090  -32.5630   53.1350 H   0  0  0  0  0  0  0  0  0  0  0  0
  -27.5550  -29.1540   54.4070 H   0  0  0  0  0  0  0  0  0  0  0  0
  -22.2300  -26.6100   55.8530 C   0  0  0  0  0  0  0  0  0  0  0  0
  -21.8230  -25.2190   56.2410 C   0  0  0  0  0  0  0  0  0  0  0  0
  -20.3760  -24.8980   56.4730 C   0  0  0  0  0  0  0  0  0  0  0  0
  -19.3370  -25.9680   56.3170 C   0  0  0  0  0  0  0  0  0  0  0  0
  -19.7430  -27.3580   55.9300 C   0  0  0  0  0  0  0  0  0  0  0  0
  -21.1910  -27.6800   55.6980 C   0  0  0  0  0  0  0  0  0  0  0  0
  -22.5380  -24.4830   56.3480 H   0  0  0  0  0  0  0  0  0  0  0  0
  -20.0970  -23.9410   56.7390 H   0  0  0  0  0  0  0  0  0  0  0  0
  -18.3410  -25.7460   56.4770 H   0  0  0  0  0  0  0  0  0  0  0  0
  -21.4700  -28.6360   55.4320 H   0  0  0  0  0  0  0  0  0  0  0  0
  -18.7030  -28.4290   55.7740 C   0  0  0  0  0  0  0  0  0  0  0  0
  -17.6630  -29.4970   55.6190 F   0  0  0  0  0  0  0  0  0  0  0  0
  -17.6620  -27.3790   55.5210 F   0  0  0  0  0  0  0  0  0  0  0  0
  -19.7450  -29.4770   56.0280 F   0  0  0  0  0  0  0  0  0  0  0  0
  -19.8330  -30.9390   53.0170 C   0  0  0  0  0  0  0  0  0  0  0  0
  -21.3280  -30.8310   52.9680 C   0  0  0  0  0  0  0  0  0  0  0  0
  -22.1780  -31.9270   53.5410 C   0  0  0  0  0  0  0  0  0  0  0  0
  -21.5320  -33.1300   54.1620 C   0  0  0  0  0  0  0  0  0  0  0  0
  -20.0370  -33.2380   54.2100 C   0  0  0  0  0  0  0  0  0  0  0  0
  -19.1870  -32.1420   53.6370 C   0  0  0  0  0  0  0  0  0  0  0  0
  -21.7730  -30.0040   52.5410 H   0  0  0  0  0  0  0  0  0  0  0  0
  -22.1170  -33.8840   54.5560 H   0  0  0  0  0  0  0  0  0  0  0  0
  -18.9830  -29.8440   52.4440 O   0  0  0  0  0  0  0  0  0  0  0  0
  -19.5630  -28.4770   52.2330 C   0  0  0  0  0  0  0  0  0  0  0  0
  -18.9570  -27.6950   51.8250 H   0  0  0  0  0  0  0  0  0  0  0  0
  -20.5840  -28.2830   52.4920 H   0  0  0  0  0  0  0  0  0  0  0  0
  -19.9780  -27.5010   52.0830 H   0  0  0  0  0  0  0  0  0  0  0  0
  -19.3910  -34.4410   54.8310 O   0  0  0  0  0  0  0  0  0  0  0  0
  -18.9370  -35.5790   53.9650 C   0  0  0  0  0  0  0  0  0  0  0  0
  -19.0730  -35.5320   52.9050 H   0  0  0  0  0  0  0  0  0  0  0  0
  -18.4760  -36.4370   54.4080 H   0  0  0  0  0  0  0  0  0  0  0  0
  -18.6120  -36.3900   53.3480 H   0  0  0  0  0  0  0  0  0  0  0  0
  -17.6920  -32.2500   53.6850 O   0  0  0  0  0  0  0  0  0  0  0  0
  -16.9330  -32.7010   52.4730 C   0  0  0  0  0  0  0  0  0  0  0  0
  -15.8660  -32.7770   52.5070 H   0  0  0  0  0  0  0  0  0  0  0  0
  -17.4590  -32.9450   51.5730 H   0  0  0  0  0  0  0  0  0  0  0  0
  -16.3920  -33.0220   51.6070 H   0  0  0  0  0  0  0  0  0  0  0  0
  -27.4940  -26.2300   55.6840 C   0  0  0  0  0  0  0  0  0  0  0  0
  -28.3250  -26.8280   55.3710 H   0  0  0  0  0  0  0  0  0  0  0  0
  -27.6600  -25.2570   56.0970 H   0  0  0  0  0  0  0  0  0  0  0  0
  -28.4910  -25.8550   55.7840 H   0  0  0  0  0  0  0  0  0  0  0  0
  1 29  1  0
  1  2  1  0
  2 10  1  0
  3  2  2  0
  3  4  1  0
  4  5  1  0
  5  9  1  0
  5  6  2  0
  6 50  1  0
  6  7  1  0
  8 13  1  0
  8  7  2  0
  9  8  1  0
 10  9  1  0
 11  1  1  0
 12  4  1  0
 13 14  1  0
 14 19  1  0
 14 15  2  0
 15 20  1  0
 16 15  1  0
 16 21  1  0
 17 16  2  0
 18 13  2  0
 18 17  1  0
 22 18  1  0
 23 17  1  0
 23 26  1  0
 24 23  1  0
 25 23  1  0
 27 32  1  0
 28 27  2  0
 28 29  1  0
 29 30  2  0
 30 31  1  0
 30 34  1  0
 31 40  1  0
 32 45  1  0
 32 31  2  0
 33 28  1  0
 35 27  1  0
 36 35  1  0
 36 38  1  0
 37 36  1  0
 39 36  1  0
 41 43  1  0
 41 40  1  0
 42 41  1  0
 44 41  1  0
 46 47  1  0
 46 45  1  0
 48 46  1  0
 49 46  1  0
 50 53  1  0
 50 52  1  0
 51 50  1  0
M  END
>  <minimizedAffinity>  (318) 
-8.04276371

$$$$

     RDKit          3D

 55 58  0  0  0  0  0  0  0  0999 V2000
  -23.3670  -25.9270   55.8920 C   0  0  0  0  0  0  0  0  0  0  0  0
  -23.4950  -24.4970   56.3240 C   0  0  0  0  0  0  0  0  0  0  0  0
  -22.2640  -23.6770   56.5740 N   0  0  0  0  0  0  0  0  0  0  0  0
  -20.9060  -24.2880   56.3940 C   0  0  0  0  0  0  0  0  0  0  0  0
  -20.7790  -25.7190   55.9620 N   0  0  0  0  0  0  0  0  0  0  0  0
  -22.0100  -26.5390   55.7110 C   0  0  0  0  0  0  0  0  0  0  0  0
  -21.8820  -27.9690   55.2800 N   0  0  0  0  0  0  0  0  0  0  0  0
  -24.4290  -24.0760   56.4480 H   0  0  0  0  0  0  0  0  0  0  0  0
  -20.0590  -23.7230   56.5660 H   0  0  0  0  0  0  0  0  0  0  0  0
  -22.6900  -28.5070   55.1150 H   0  0  0  0  0  0  0  0  0  0  0  0
  -20.5250  -28.5810   55.0990 C   0  0  0  0  0  0  0  0  0  0  0  0
  -19.8840  -29.3320   56.2280 C   0  0  0  0  0  0  0  0  0  0  0  0
  -18.5260  -29.9430   56.0480 C   0  0  0  0  0  0  0  0  0  0  0  0
  -17.8090  -29.8030   54.7380 C   0  0  0  0  0  0  0  0  0  0  0  0
  -18.4490  -29.0520   53.6090 C   0  0  0  0  0  0  0  0  0  0  0  0
  -17.7320  -28.9110   52.2990 Cl  0  0  0  0  0  0  0  0  0  0  0  0
  -19.8070  -28.4400   53.7890 C   0  0  0  0  0  0  0  0  0  0  0  0
  -20.3770  -29.4280   57.1300 H   0  0  0  0  0  0  0  0  0  0  0  0
  -18.0850  -30.4600   56.8250 H   0  0  0  0  0  0  0  0  0  0  0  0
  -20.2480  -27.9230   53.0120 H   0  0  0  0  0  0  0  0  0  0  0  0
  -16.4510  -30.4140   54.5570 O   0  0  0  0  0  0  0  0  0  0  0  0
  -16.0800  -31.6550   55.3130 C   0  0  0  0  0  0  0  0  0  0  0  0
  -16.6610  -32.5470   55.1960 H   0  0  0  0  0  0  0  0  0  0  0  0
  -15.8160  -32.5410   55.8530 H   0  0  0  0  0  0  0  0  0  0  0  0
  -14.8960  -31.6480   56.2330 C   0  0  0  0  0  0  0  0  0  0  0  0
  -13.5250  -31.9300   55.6940 C   0  0  0  0  0  0  0  0  0  0  0  0
  -12.3410  -31.9220   56.6140 C   0  0  0  0  0  0  0  0  0  0  0  0
  -12.5270  -31.6320   58.0740 C   0  0  0  0  0  0  0  0  0  0  0  0
  -13.8970  -31.3500   58.6130 C   0  0  0  0  0  0  0  0  0  0  0  0
  -14.0840  -31.0600   60.0730 F   0  0  0  0  0  0  0  0  0  0  0  0
  -15.0820  -31.3580   57.6930 C   0  0  0  0  0  0  0  0  0  0  0  0
  -13.3970  -32.1300   54.6890 H   0  0  0  0  0  0  0  0  0  0  0  0
  -11.3970  -32.1170   56.2420 H   0  0  0  0  0  0  0  0  0  0  0  0
  -11.7120  -31.6270   58.7070 H   0  0  0  0  0  0  0  0  0  0  0  0
  -16.0250  -31.1630   58.0650 H   0  0  0  0  0  0  0  0  0  0  0  0
  -25.8290  -27.5670   55.3910 C   0  0  0  0  0  0  0  0  0  0  0  0
  -24.5980  -26.7470   55.6410 C   0  0  0  0  0  0  0  0  0  0  0  0
  -29.4140  -28.6420   54.0710 C   0  0  0  0  0  0  0  0  0  0  0  0
  -29.5210  -30.0270   54.6380 C   0  0  0  0  0  0  0  0  0  0  0  0
  -28.3980  -30.5910   55.4560 C   0  0  0  0  0  0  0  0  0  0  0  0
  -27.1670  -29.7710   55.7070 C   0  0  0  0  0  0  0  0  0  0  0  0
  -27.0600  -28.3870   55.1400 C   0  0  0  0  0  0  0  0  0  0  0  0
  -28.1830  -27.8230   54.3210 C   0  0  0  0  0  0  0  0  0  0  0  0
  -30.3680  -30.5910   54.4660 H   0  0  0  0  0  0  0  0  0  0  0  0
  -28.4720  -31.5440   55.8470 H   0  0  0  0  0  0  0  0  0  0  0  0
  -26.3950  -30.1600   56.2700 H   0  0  0  0  0  0  0  0  0  0  0  0
  -28.1090  -26.8700   53.9310 H   0  0  0  0  0  0  0  0  0  0  0  0
  -30.9530  -26.6480   53.4350 N   0  0  0  0  0  0  0  0  0  0  0  0
  -30.5370  -28.0780   53.2520 C   0  0  0  0  0  0  0  0  0  0  0  0
  -31.2450  -28.9430   52.2520 O   0  0  0  0  0  0  0  0  0  0  0  0
  -30.4890  -26.0800   54.0910 H   0  0  0  0  0  0  0  0  0  0  0  0
  -32.0760  -26.0840   52.6160 C   0  0  0  0  0  0  0  0  0  0  0  0
  -32.3730  -25.0640   52.7470 H   0  0  0  0  0  0  0  0  0  0  0  0
  -32.5810  -26.7010   51.9030 H   0  0  0  0  0  0  0  0  0  0  0  0
  -32.8780  -25.6810   52.0330 H   0  0  0  0  0  0  0  0  0  0  0  0
  1  2  2  0
  2  8  1  0
  2  3  1  0
  4  9  1  0
  4  3  2  0
  5  4  1  0
  6  1  1  0
  6  5  2  0
  7  6  1  0
 10  7  1  0
 11  7  1  0
 11 12  1  0
 12 18  1  0
 13 12  2  0
 13 19  1  0
 14 13  1  0
 15 17  1  0
 15 14  2  0
 16 15  1  0
 17 11  2  0
 20 17  1  0
 21 14  1  0
 21 22  1  0
 22 24  1  0
 22 25  1  0
 23 22  1  0
 25 31  1  0
 26 25  2  0
 26 27  1  0
 27 28  2  0
 28 29  1  0
 28 34  1  0
 29 30  1  0
 31 35  1  0
 31 29  2  0
 32 26  1  0
 33 27  1  0
 36 37  3  0
 37  1  1  0
 38 43  2  0
 38 39  1  0
 39 40  2  0
 40 41  1  0
 40 45  1  0
 41 46  1  0
 42 36  1  0
 42 41  2  0
 43 42  1  0
 44 39  1  0
 47 43  1  0
 48 51  1  0
 49 48  1  0
 49 38  1  0
 50 49  2  0
 52 53  1  0
 52 48  1  0
 54 52  1  0
 55 52  1  0
M  END
>  <minimizedAffinity>  (319) 
-9.52351761

$$$$

     RDKit          3D

 66 64  0  0  0  0  0  0  0  0999 V2000
  -24.7770  -27.4040   55.3310 C   0  0  0  0  0  0  0  0  0  0  0  0
  -25.1410  -26.0030   55.7240 C   0  0  0  0  0  0  0  0  0  0  0  0
  -24.0690  -25.0350   56.1300 C   0  0  0  0  0  0  0  0  0  0  0  0
  -22.6330  -25.4680   56.1420 C   0  0  0  0  0  0  0  0  0  0  0  0
  -21.5610  -24.5010   56.5480 N   0  0  0  0  0  0  0  0  0  0  0  0
  -20.1250  -24.9340   56.5600 C   0  0  0  0  0  0  0  0  0  0  0  0
  -19.7610  -26.3350   56.1670 N   0  0  0  0  0  0  0  0  0  0  0  0
  -20.8330  -27.3030   55.7610 C   0  0  0  0  0  0  0  0  0  0  0  0
  -20.4690  -28.7040   55.3680 N   0  0  0  0  0  0  0  0  0  0  0  0
  -22.2690  -26.8690   55.7490 C   0  0  0  0  0  0  0  0  0  0  0  0
  -23.3410  -27.8370   55.3430 C   0  0  0  0  0  0  0  0  0  0  0  0
  -26.1290  -25.7050   55.7150 H   0  0  0  0  0  0  0  0  0  0  0  0
  -24.3200  -24.0710   56.4000 H   0  0  0  0  0  0  0  0  0  0  0  0
  -19.3880  -24.2680   56.8390 H   0  0  0  0  0  0  0  0  0  0  0  0
  -21.1720  -29.3390   55.1020 H   0  0  0  0  0  0  0  0  0  0  0  0
  -23.0900  -28.8010   55.0730 H   0  0  0  0  0  0  0  0  0  0  0  0
  -19.0330  -29.1370   55.3810 C   0  0  0  0  0  0  0  0  0  0  0  0
  -18.6900  -30.5970   55.3640 C   0  0  0  0  0  0  0  0  0  0  0  0
  -17.2540  -31.0300   55.3760 C   0  0  0  0  0  0  0  0  0  0  0  0
  -16.1610  -30.0030   55.4060 C   0  0  0  0  0  0  0  0  0  0  0  0
  -16.5040  -28.5430   55.4230 C   0  0  0  0  0  0  0  0  0  0  0  0
  -15.4110  -27.5160   55.4530 Cl  0  0  0  0  0  0  0  0  0  0  0  0
  -17.9400  -28.1100   55.4100 C   0  0  0  0  0  0  0  0  0  0  0  0
  -19.4420  -31.3040   55.3430 H   0  0  0  0  0  0  0  0  0  0  0  0
  -17.0180  -32.0350   55.3640 H   0  0  0  0  0  0  0  0  0  0  0  0
  -18.1760  -27.1050   55.4220 H   0  0  0  0  0  0  0  0  0  0  0  0
  -14.7250  -30.4360   55.4180 O   0  0  0  0  0  0  0  0  0  0  0  0
  -14.3130  -31.6470   56.2020 C   0  0  0  0  0  0  0  0  0  0  0  0
  -14.5060  -32.6260   55.8150 H   0  0  0  0  0  0  0  0  0  0  0  0
  -14.0200  -32.5120   56.7610 H   0  0  0  0  0  0  0  0  0  0  0  0
  -13.6330  -31.4860   57.5290 C   0  0  0  0  0  0  0  0  0  0  0  0
  -14.4340  -31.1200   58.7430 C   0  0  0  0  0  0  0  0  0  0  0  0
  -13.7530  -30.9590   60.0700 C   0  0  0  0  0  0  0  0  0  0  0  0
  -12.2710  -31.1640   60.1830 C   0  0  0  0  0  0  0  0  0  0  0  0
  -11.4700  -31.5300   58.9680 C   0  0  0  0  0  0  0  0  0  0  0  0
  -12.1510  -31.6910   57.6410 C   0  0  0  0  0  0  0  0  0  0  0  0
  -15.4530  -30.9790   58.6660 H   0  0  0  0  0  0  0  0  0  0  0  0
  -14.3040  -30.7080   60.9060 H   0  0  0  0  0  0  0  0  0  0  0  0
  -11.8030  -31.0530   61.0960 H   0  0  0  0  0  0  0  0  0  0  0  0
  -10.4510  -31.6710   59.0460 H   0  0  0  0  0  0  0  0  0  0  0  0
  -11.6000  -31.9430   56.8060 H   0  0  0  0  0  0  0  0  0  0  0  0
  -27.0010  -30.2370   53.8840 C   0  0  0  0  0 15  0  0  0  0  0  0
  -27.9960  -29.4860   54.7190 C   0  0  0  0  0  2  0  0  0  0  0  0
  -27.2830  -28.3330   55.3630 C   0  0  0  0  0  0  0  0  0  0  0  0
  -25.8490  -28.3720   54.9250 C   0  0  0  0  0  0  0  0  0  0  0  0
  -25.6740  -29.5480   54.0120 O   0  0  0  0  0  1  0  0  0  0  0  0
  -28.9940  -29.7210   54.8300 H   0  0  0  0  0  0  0  0  0  0  0  0
  -27.7050  -27.6360   55.9950 H   0  0  0  0  0  0  0  0  0  0  0  0
  -27.2840  -31.4610   53.0650 C   0  0  0  0  0  2  0  0  0  0  0  0
  -28.2140  -31.9770   53.1770 H   0  0  0  0  0  0  0  0  0  0  0  0
  -28.0120  -31.1040   53.7610 H   0  0  0  0  0  0  0  0  0  0  0  0
  -26.2620  -31.9620   52.0870 N   0  0  0  0  0  1  0  0  0  0  0  0
  -26.2110  -31.5590   51.1510 H   0  0  0  0  0  0  0  0  0  0  0  0
  -25.3160  -33.0560   52.4870 C   0  0  0  0  0  2  0  0  0  0  0  0
  -25.6430  -33.8340   53.1430 H   0  0  0  0  0  0  0  0  0  0  0  0
  -26.3180  -33.0540   52.8590 H   0  0  0  0  0  0  0  0  0  0  0  0
  -23.9090  -33.0570   51.9650 C   0  0  0  0  0  3  0  0  0  0  0  0
  -23.7080  -33.3910   50.9690 H   0  0  0  0  0  0  0  0  0  0  0  0
  -24.7110  -33.3900   51.3400 H   0  0  0  0  0  0  0  0  0  0  0  0
  -22.7840  -32.5900   52.8410 S   0  0  2  0  0  0  0  0  0  0  0  0
  -23.1460  -31.1650   52.5480 O   0  0  0  0  0  0  0  0  0  0  0  0
  -22.4220  -34.0160   53.1350 O   0  0  0  0  0  0  0  0  0  0  0  0
  -21.6600  -32.1250   53.7170 C   0  0  0  0  0  0  0  0  0  0  0  0
  -21.0340  -32.8390   54.2120 H   0  0  0  0  0  0  0  0  0  0  0  0
  -21.4820  -31.0780   53.8490 H   0  0  0  0  0  0  0  0  0  0  0  0
  -20.8570  -31.7920   54.3430 H   0  0  0  0  0  0  0  0  0  0  0  0
  1 11  2  0
  1  2  1  0
  2  3  2  0
  3  4  1  0
  3 13  1  0
  4  5  1  0
  5  6  2  0
  6 14  1  0
  7  6  1  0
  8  7  2  0
  9 17  1  0
  9  8  1  0
 10  8  1  0
 10  4  2  0
 11 10  1  0
 12  2  1  0
 15  9  1  0
 16 11  1  0
 17 23  1  0
 18 19  1  0
 18 17  2  0
 19 20  2  0
 20 27  1  0
 20 21  1  0
 21 22  1  0
 23 26  1  0
 23 21  2  0
 24 18  1  0
 25 19  1  0
 27 28  1  0
 28 30  1  0
 28 31  1  0
 29 28  1  0
 31 36  2  0
 31 32  1  0
 32 33  2  0
 33 34  1  0
 33 38  1  0
 34 39  1  0
 35 40  1  0
 35 34  2  0
 36 35  1  0
 37 32  1  0
 41 36  1  0
 43 47  1  0
 43 44  1  0
 44 48  1  0
 45  1  1  0
 45 44  2  0
 46 45  1  0
 49 50  1  0
 49 51  1  0
 53 52  1  0
 54 56  1  0
 54 55  1  0
 57 60  1  0
 58 57  1  0
 59 57  1  0
 60 62  2  0
 60 63  1  0
 61 60  2  0
 63 65  1  0
 63 64  1  0
 63 66  1  0
M  END
>  <minimizedAffinity>  (320) 
-12.2822409

$$$$

     RDKit          3D

 70 65  0  0  1  0  0  0  0  0999 V2000
  -20.5640  -29.2770   53.9340 C   0  0  0  0  0  3  0  0  0  0  0  0
  -21.4940  -28.8320   52.8450 C   0  0  0  0  0  0  0  0  0  0  0  0
  -22.4600  -29.8070   52.2390 C   0  0  0  0  0  0  0  0  0  0  0  0
  -22.4940  -31.2270   52.7220 C   0  0  0  0  0  0  0  0  0  0  0  0
  -21.5630  -31.6720   53.8110 C   0  0  0  0  0  0  0  0  0  0  0  0
  -20.5980  -30.6970   54.4180 C   0  0  0  0  0  0  0  0  0  0  0  0
  -21.4710  -27.8550   52.5140 H   0  0  0  0  0  0  0  0  0  0  0  0
  -23.1000  -29.5010   51.4900 H   0  0  0  0  0  0  0  0  0  0  0  0
  -19.9580  -31.0030   55.1670 H   0  0  0  0  0  0  0  0  0  0  0  0
  -19.1380  -26.2210   56.0270 N   0  0  0  0  0 15  0  0  0  0  0  0
  -17.6680  -26.3510   55.7530 C   0  0  0  0  0  2  0  0  0  0  0  0
  -17.1650  -27.4570   54.8740 C   0  0  0  0  0  2  0  0  0  0  0  0
  -18.1300  -28.4320   54.2670 C   0  0  0  0  0  2  0  0  0  0  0  0
  -19.5990  -28.3010   54.5410 C   0  0  0  0  0  1  0  0  0  0  0  0
  -20.1030  -27.1960   55.4200 C   0  0  0  0  0  2  0  0  0  0  0  0
  -16.9800  -25.6550   56.1860 H   0  0  0  0  0  0  0  0  0  0  0  0
  -16.6210  -26.4440   55.5580 H   0  0  0  0  0  0  0  0  0  0  0  0
  -16.1170  -27.5490   54.6790 H   0  0  0  0  0  0  0  0  0  0  0  0
  -16.8050  -28.2450   54.2460 H   0  0  0  0  0  0  0  0  0  0  0  0
  -17.7700  -29.2200   53.6400 H   0  0  0  0  0  0  0  0  0  0  0  0
  -18.8170  -29.1270   53.8350 H   0  0  0  0  0  0  0  0  0  0  0  0
  -19.2390  -29.0900   53.9130 H   0  0  0  0  0  0  0  0  0  0  0  0
  -21.1510  -27.1040   55.6150 H   0  0  0  0  0  0  0  0  0  0  0  0
  -20.4620  -26.4070   56.0480 H   0  0  0  0  0  0  0  0  0  0  0  0
  -19.6420  -25.1150   56.9070 C   0  0  0  0  0  2  0  0  0  0  0  0
  -19.3490  -25.0750   57.9350 H   0  0  0  0  0  0  0  0  0  0  0  0
  -18.9900  -25.8640   57.3070 H   0  0  0  0  0  0  0  0  0  0  0  0
  -20.5560  -24.0680   56.3450 C   0  0  0  0  0  3  0  0  0  0  0  0
  -20.1500  -23.2370   55.8060 H   0  0  0  0  0  0  0  0  0  0  0  0
  -19.4980  -23.9850   56.2070 H   0  0  0  0  0  0  0  0  0  0  0  0
  -22.0390  -24.1850   56.5400 C   0  0  0  0  0  0  0  0  0  0  0  0
  -22.4440  -25.0140   57.0780 H   0  0  0  0  0  0  0  0  0  0  0  0
  -22.6920  -23.4370   56.1390 H   0  0  0  0  0  0  0  0  0  0  0  0
  -23.0970  -24.2680   56.6780 H   0  0  0  0  0  0  0  0  0  0  0  0
  -23.4590  -32.2020   52.1160 N   0  0  0  0  0  0  0  0  0  0  0  0
  -24.8850  -32.2340   52.5810 C   0  0  0  0  0  0  0  0  0  0  0  0
  -25.3460  -31.2900   53.6510 N   0  0  0  0  0  0  0  0  0  0  0  0
  -26.7710  -31.3210   54.1160 C   0  0  0  0  0  3  0  0  0  0  0  0
  -27.7360  -32.2960   53.5100 C   0  0  0  0  0  0  0  0  0  0  0  0
  -29.1920  -32.5580   53.7630 C   0  0  0  0  0  0  0  0  0  0  0  0
  -29.6310  -33.6630   52.8480 C   0  0  0  0  0  0  0  0  0  0  0  0
  -28.4470  -34.0850   52.0310 N   0  0  0  0  0  0  0  0  0  0  0  0
  -27.2760  -33.2400   52.4390 C   0  0  0  0  0  0  0  0  0  0  0  0
  -25.8500  -33.2090   51.9740 N   0  0  0  0  0  2  0  0  0  0  0  0
  -23.1570  -32.8220   51.4130 H   0  0  0  0  0  0  0  0  0  0  0  0
  -29.7870  -32.0640   54.4460 H   0  0  0  0  0  0  0  0  0  0  0  0
  -30.5800  -34.0630   52.7920 H   0  0  0  0  0  0  0  0  0  0  0  0
  -28.4390  -34.7920   51.3450 H   0  0  0  0  0  0  0  0  0  0  0  0
  -27.2330  -30.3770   55.1870 N   0  0  0  0  0  0  0  0  0  0  0  0
  -27.9670  -30.6360   55.7880 H   0  0  0  0  0  0  0  0  0  0  0  0
  -26.5740  -29.0380   55.3410 C   0  0  0  0  0  0  0  0  0  0  0  0
  -25.0790  -28.9430   55.4260 C   0  0  0  0  0  0  0  0  0  0  0  0
  -24.4210  -27.6040   55.5790 C   0  0  0  0  0  0  0  0  0  0  0  0
  -22.9260  -27.5090   55.6640 F   0  0  0  0  0  0  0  0  0  0  0  0
  -25.2560  -26.3610   55.6480 C   0  0  0  0  0  0  0  0  0  0  0  0
  -26.7510  -26.4560   55.5630 C   0  0  0  0  0  0  0  0  0  0  0  0
  -27.4100  -27.7950   55.4090 C   0  0  0  0  0  0  0  0  0  0  0  0
  -24.5040  -29.7990   55.3780 H   0  0  0  0  0  0  0  0  0  0  0  0
  -24.8040  -25.4400   55.7540 H   0  0  0  0  0  0  0  0  0  0  0  0
  -27.3270  -25.6000   55.6100 H   0  0  0  0  0  0  0  0  0  0  0  0
  -28.9050  -27.8900   55.3240 C   0  0  0  0  0  0  0  0  0  0  0  0
  -29.6540  -27.0500   54.3340 N   0  0  0  0  0  0  0  0  0  0  0  0
  -29.6490  -28.8270   56.2290 O   0  0  0  0  0  0  0  0  0  0  0  0
  -30.6350  -27.1120   54.2780 H   0  0  0  0  0  0  0  0  0  0  0  0
  -29.1660  -26.4350   53.7400 H   0  0  0  0  0  0  0  0  0  0  0  0
  -21.5980  -33.0910   54.2940 O   0  0  0  0  0  0  0  0  0  0  0  0
  -20.6840  -34.1130   53.6850 C   0  0  0  0  0  0  0  0  0  0  0  0
  -20.7100  -35.1270   54.0290 H   0  0  0  0  0  0  0  0  0  0  0  0
  -20.0080  -33.8300   52.9060 H   0  0  0  0  0  0  0  0  0  0  0  0
  -20.0330  -34.8430   53.2510 H   0  0  0  0  0  0  0  0  0  0  0  0
  1  6  1  0
  2  1  2  0
  3  4  2  0
  3  2  1  0
  4  5  1  0
  5 66  1  0
  5  6  2  0
  6  9  1  0
  7  2  1  0
  8  3  1  0
 11 16  1  0
 15 23  1  0
 15 24  1  0
 17 11  1  0
 18 12  1  0
 19 12  1  0
 20 13  1  0
 21 13  1  0
 22 14  1  0
 25 27  1  0
 25 26  1  0
 28 31  1  0
 29 28  1  0
 30 28  1  0
 31 34  1  0
 31 32  1  0
 33 31  1  0
 35 36  1  0
 35  4  1  0
 36 37  2  0
 37 38  1  0
 38 49  1  0
 39 40  1  0
 39 38  1  0
 40 46  1  0
 41 40  2  0
 42 43  1  0
 42 41  1  0
 43 39  2  0
 44 43  1  0
 44 36  1  0
 45 35  1  0
 47 41  1  0
 48 42  1  0
 49 51  1  0
 49 50  1  0
 51 57  2  0
 51 52  1  0
 52 53  2  0
 53 55  1  0
 53 54  1  0
 55 59  1  0
 56 60  1  0
 56 55  2  0
 57 56  1  0
 58 52  1  0
 61 57  1  0
 61 63  2  0
 62 61  1  0
 64 62  1  0
 65 62  1  0
 67 68  1  0
 67 66  1  0
 69 67  1  0
 70 67  1  0
M  END
>  <minimizedAffinity>  (321) 
-9.24989986

$$$$

     RDKit          3D

 42 45  0  0  1  0  0  0  0  0999 V2000
  -20.3850  -27.5770   55.7380 N   0  0  0  0  0  0  0  0  0  0  0  0
  -20.5440  -29.0680   55.6720 N   0  0  0  0  0  0  0  0  0  0  0  0
  -19.1870  -29.6700   55.4640 C   0  0  0  0  0  0  0  0  0  0  0  0
  -18.1880  -28.5520   55.4020 C   0  0  0  0  0  0  0  0  0  0  0  0
  -16.7000  -28.5440   55.2130 C   0  0  0  0  0  3  0  0  0  0  0  0
  -15.9530  -27.2440   55.1940 N   0  0  0  0  0  0  0  0  0  0  0  0
  -16.6940  -25.9510   55.3630 C   0  0  0  0  0  0  0  0  0  0  0  0
  -18.1820  -25.9580   55.5520 N   0  0  0  0  0  2  0  0  0  0  0  0
  -18.9290  -27.2590   55.5720 C   0  0  0  0  0  0  0  0  0  0  0  0
  -18.9760  -30.6760   55.3790 H   0  0  0  0  0  0  0  0  0  0  0  0
  -16.1800  -25.0560   55.3500 H   0  0  0  0  0  0  0  0  0  0  0  0
  -24.0020  -25.9450   55.7720 C   0  0  0  0  0  0  0  0  0  0  0  0
  -23.6960  -24.5880   56.3340 C   0  0  0  0  0  0  0  0  0  0  0  0
  -22.2860  -24.2270   56.6970 C   0  0  0  0  0  0  0  0  0  0  0  0
  -21.1820  -25.2240   56.4980 C   0  0  0  0  0  0  0  0  0  0  0  0
  -21.4890  -26.5810   55.9370 C   0  0  0  0  0  0  0  0  0  0  0  0
  -22.8990  -26.9410   55.5740 C   0  0  0  0  0  0  0  0  0  0  0  0
  -24.4550  -23.9020   56.4700 H   0  0  0  0  0  0  0  0  0  0  0  0
  -22.0750  -23.2940   57.0830 H   0  0  0  0  0  0  0  0  0  0  0  0
  -20.2130  -24.9760   56.7480 H   0  0  0  0  0  0  0  0  0  0  0  0
  -23.1100  -27.8740   55.1880 H   0  0  0  0  0  0  0  0  0  0  0  0
  -25.4130  -26.3050   55.4090 O   0  0  0  0  0  0  0  0  0  0  0  0
  -25.8390  -27.7440   55.3950 C   0  0  0  0  0  0  0  0  0  0  0  0
  -25.1370  -28.5120   55.6440 H   0  0  0  0  0  0  0  0  0  0  0  0
  -26.8440  -28.0020   55.1360 H   0  0  0  0  0  0  0  0  0  0  0  0
  -26.1430  -28.7700   55.3850 H   0  0  0  0  0  0  0  0  0  0  0  0
  -15.9590  -29.8370   55.0440 N   0  0  0  0  0  0  0  0  0  0  0  0
  -16.3320  -30.5480   54.4730 H   0  0  0  0  0  0  0  0  0  0  0  0
  -14.6490  -30.0490   55.7440 N   0  0  0  0  0  0  0  0  0  0  0  0
  -14.4020  -31.3170   56.5050 C   0  0  0  0  0  0  0  0  0  0  0  0
  -15.1320  -32.0450   56.5470 H   0  0  0  0  0  0  0  0  0  0  0  0
  -13.0920  -31.5280   57.2040 C   0  0  0  0  0  0  0  0  0  0  0  0
  -11.8050  -31.3670   56.4520 C   0  0  0  0  0  0  0  0  0  0  0  0
  -10.4950  -31.5780   57.1520 C   0  0  0  0  0  0  0  0  0  0  0  0
  -10.4720  -31.9510   58.6040 C   0  0  0  0  0  0  0  0  0  0  0  0
   -9.1630  -32.1620   59.3040 F   0  0  0  0  0  0  0  0  0  0  0  0
  -11.7600  -32.1120   59.3570 C   0  0  0  0  0  0  0  0  0  0  0  0
  -13.0690  -31.9010   58.6570 C   0  0  0  0  0  0  0  0  0  0  0  0
  -11.8200  -31.1100   55.4520 H   0  0  0  0  0  0  0  0  0  0  0  0
   -9.6090  -31.4670   56.6330 H   0  0  0  0  0  0  0  0  0  0  0  0
  -11.7440  -32.3690   60.3570 H   0  0  0  0  0  0  0  0  0  0  0  0
  -13.9550  -32.0120   59.1750 H   0  0  0  0  0  0  0  0  0  0  0  0
  1 16  1  0
  2  1  1  0
  3  2  2  0
  4  3  1  0
  4  9  2  0
  5 27  1  0
  5  4  1  0
  6  5  1  0
  6  7  2  0
  7  8  1  0
  8  9  1  0
  9  1  1  0
 10  3  1  0
 11  7  1  0
 12 13  1  0
 13 18  1  0
 13 14  2  0
 14 19  1  0
 15 14  1  0
 15 20  1  0
 16 15  2  0
 17 12  2  0
 17 16  1  0
 21 17  1  0
 22 12  1  0
 23 22  1  0
 23 24  1  0
 25 23  1  0
 26 23  1  0
 27 29  1  0
 28 27  1  0
 29 30  2  0
 30 31  1  0
 30 32  1  0
 32 38  1  0
 33 34  1  0
 33 32  2  0
 34 35  2  0
 35 36  1  0
 35 37  1  0
 37 41  1  0
 38 42  1  0
 38 37  2  0
 39 33  1  0
 40 34  1  0
M  END
>  <minimizedAffinity>  (322) 
-8.96496296

$$$$

     RDKit          3D

 40 39  0  0  0  0  0  0  0  0999 V2000
  -19.4000  -29.1420   54.6310 N   0  0  0  0  0  0  0  0  0  0  0  0
  -20.4320  -28.8910   55.6900 C   0  0  0  0  0  0  0  0  0  0  0  0
  -20.2010  -29.3730   57.0910 O   0  0  0  0  0  0  0  0  0  0  0  0
  -19.5510  -28.8250   53.7110 H   0  0  0  0  0  0  0  0  0  0  0  0
  -16.8030  -29.2510   55.2580 C   0  0  0  0  0  0  0  0  0  0  0  0
  -18.1370  -29.8760   54.9740 C   0  0  0  0  0  0  0  0  0  0  0  0
  -17.9860  -31.3640   55.0920 S   0  0  0  0  0  0  0  0  0  0  0  0
  -16.5600  -31.6570   55.4490 C   0  0  0  0  0  3  0  0  0  0  0  0
  -15.8290  -30.3520   55.5520 C   0  0  0  0  0  0  0  0  0  0  0  0
  -14.3700  -30.3340   55.8990 C   0  0  0  0  0  3  0  0  0  0  0  0
  -13.6420  -31.6220   56.1450 C   0  0  0  0  0  2  0  0  0  0  0  0
  -14.3720  -32.9280   56.0430 C   0  0  0  0  0  2  0  0  0  0  0  0
  -15.8320  -32.9460   55.6950 C   0  0  0  0  0  2  0  0  0  0  0  0
  -13.8480  -29.4020   55.9720 H   0  0  0  0  0  0  0  0  0  0  0  0
  -13.3280  -30.3220   56.1480 H   0  0  0  0  0  0  0  0  0  0  0  0
  -12.6000  -31.6100   56.3930 H   0  0  0  0  0  0  0  0  0  0  0  0
  -13.1220  -32.5410   56.3200 H   0  0  0  0  0  0  0  0  0  0  0  0
  -13.8530  -33.8470   56.2180 H   0  0  0  0  0  0  0  0  0  0  0  0
  -14.8940  -33.8600   55.9700 H   0  0  0  0  0  0  0  0  0  0  0  0
  -16.3530  -33.8770   55.6220 H   0  0  0  0  0  0  0  0  0  0  0  0
  -16.8720  -32.9580   55.4470 H   0  0  0  0  0  0  0  0  0  0  0  0
  -16.1950  -26.3130   55.2400 N   0  0  0  0  0  1  0  0  0  0  0  0
  -16.4990  -27.7820   55.2490 C   0  0  0  0  0  2  0  0  0  0  0  0
  -21.6950  -28.1570   55.3480 C   0  0  0  0  0  0  0  0  0  0  0  0
  -22.8190  -28.8780   54.6640 C   0  0  0  0  0  0  0  0  0  0  0  0
  -24.0810  -28.1440   54.3210 C   0  0  0  0  0  0  0  0  0  0  0  0
  -24.2200  -26.6900   54.6630 C   0  0  0  0  0  0  0  0  0  0  0  0
  -23.0960  -25.9690   55.3460 C   0  0  0  0  0  0  0  0  0  0  0  0
  -23.2350  -24.5150   55.6870 C   0  0  0  0  0  0  0  0  0  0  0  0
  -22.1110  -23.7950   56.3710 C   0  0  0  0  0  0  0  0  0  0  0  0
  -20.8480  -24.5290   56.7130 C   0  0  0  0  0  0  0  0  0  0  0  0
  -20.7090  -25.9830   56.3720 C   0  0  0  0  0  0  0  0  0  0  0  0
  -21.8330  -26.7030   55.6890 C   0  0  0  0  0  0  0  0  0  0  0  0
  -22.7230  -29.8780   54.4290 H   0  0  0  0  0  0  0  0  0  0  0  0
  -24.8550  -28.6400   53.8510 H   0  0  0  0  0  0  0  0  0  0  0  0
  -25.0890  -26.1850   54.4270 H   0  0  0  0  0  0  0  0  0  0  0  0
  -24.1030  -24.0110   55.4520 H   0  0  0  0  0  0  0  0  0  0  0  0
  -22.2060  -22.7940   56.6060 H   0  0  0  0  0  0  0  0  0  0  0  0
  -20.0740  -24.0330   57.1840 H   0  0  0  0  0  0  0  0  0  0  0  0
  -19.8400  -26.4870   56.6080 H   0  0  0  0  0  0  0  0  0  0  0  0
  1  6  1  0
  1  2  1  0
  2  3  2  0
  4  1  1  0
  5  9  1  0
  6  7  1  0
  6  5  2  0
  7  8  1  0
  8  9  2  0
  9 10  1  0
 10 14  1  0
 10 15  1  0
 11 17  1  0
 11 16  1  0
 12 18  1  0
 19 12  1  0
 20 13  1  0
 21 13  1  0
 22 23  1  0
 23  5  1  0
 24 33  1  0
 24  2  1  0
 25 24  2  0
 26 27  2  0
 26 25  1  0
 27 28  1  0
 28 29  2  0
 28 33  1  0
 29 30  1  0
 30 38  1  0
 30 31  2  0
 31 39  1  0
 32 40  1  0
 32 31  1  0
 33 32  2  0
 34 25  1  0
 35 26  1  0
 36 27  1  0
 37 29  1  0
M  END
>  <minimizedAffinity>  (323) 
-8.26576138

$$$$

     RDKit          3D

 41 44  0  0  1  0  0  0  0  0999 V2000
  -20.5370  -27.5950   55.6500 N   0  0  0  0  0  0  0  0  0  0  0  0
  -20.7130  -29.0800   55.5280 C   0  0  0  0  0  0  0  0  0  0  0  0
  -19.3650  -29.6880   55.2810 N   0  0  0  0  0  0  0  0  0  0  0  0
  -18.3550  -28.5790   55.2500 C   0  0  0  0  0  0  0  0  0  0  0  0
  -16.8690  -28.5800   55.0430 C   0  0  0  0  0  3  0  0  0  0  0  0
  -16.1080  -27.2870   55.0640 N   0  0  0  0  0  0  0  0  0  0  0  0
  -16.8330  -25.9940   55.2930 C   0  0  0  0  0  0  0  0  0  0  0  0
  -18.3190  -25.9930   55.4990 N   0  0  0  0  0  2  0  0  0  0  0  0
  -19.0800  -27.2850   55.4780 C   0  0  0  0  0  0  0  0  0  0  0  0
  -21.6060  -29.5930   55.6020 H   0  0  0  0  0  0  0  0  0  0  0  0
  -16.3090  -25.1040   55.3070 H   0  0  0  0  0  0  0  0  0  0  0  0
  -24.1490  -25.9730   55.9130 C   0  0  0  0  0  0  0  0  0  0  0  0
  -23.8070  -24.5960   56.4000 C   0  0  0  0  0  0  0  0  0  0  0  0
  -22.3750  -24.2190   56.6370 C   0  0  0  0  0  0  0  0  0  0  0  0
  -21.2850  -25.2190   56.3870 C   0  0  0  0  0  0  0  0  0  0  0  0
  -21.6270  -26.5950   55.9000 C   0  0  0  0  0  0  0  0  0  0  0  0
  -23.0590  -26.9730   55.6630 C   0  0  0  0  0  0  0  0  0  0  0  0
  -24.5570  -23.9080   56.5720 H   0  0  0  0  0  0  0  0  0  0  0  0
  -22.1390  -23.2720   56.9720 H   0  0  0  0  0  0  0  0  0  0  0  0
  -20.3000  -24.9590   56.5500 H   0  0  0  0  0  0  0  0  0  0  0  0
  -23.2950  -27.9200   55.3280 H   0  0  0  0  0  0  0  0  0  0  0  0
  -25.5820  -26.3510   55.6760 O   0  0  0  0  0  0  0  0  0  0  0  0
  -25.9320  -27.7550   55.2810 C   0  0  0  0  0  0  0  0  0  0  0  0
  -25.1590  -28.4870   55.1680 H   0  0  0  0  0  0  0  0  0  0  0  0
  -26.9530  -28.0250   55.1120 H   0  0  0  0  0  0  0  0  0  0  0  0
  -26.1810  -28.7570   54.9990 H   0  0  0  0  0  0  0  0  0  0  0  0
  -16.1440  -29.8730   54.8150 N   0  0  0  0  0  0  0  0  0  0  0  0
  -16.3850  -30.4450   54.0500 H   0  0  0  0  0  0  0  0  0  0  0  0
  -15.0520  -30.2960   55.7520 N   0  0  0  0  0  0  0  0  0  0  0  0
  -15.3510  -31.2510   56.8690 C   0  0  0  0  0  0  0  0  0  0  0  0
  -16.3070  -31.6180   56.9930 H   0  0  0  0  0  0  0  0  0  0  0  0
  -14.2580  -31.6750   57.8060 C   0  0  0  0  0  0  0  0  0  0  0  0
  -13.3360  -32.7950   57.4260 C   0  0  0  0  0  0  0  0  0  0  0  0
  -12.2440  -33.2180   58.3630 C   0  0  0  0  0  0  0  0  0  0  0  0
  -12.0740  -32.5210   59.6800 N   0  0  0  0  0  0  0  0  0  0  0  0
  -12.9960  -31.4000   60.0600 C   0  0  0  0  0  0  0  0  0  0  0  0
  -14.0880  -30.9770   59.1230 C   0  0  0  0  0  0  0  0  0  0  0  0
  -13.4530  -33.2750   56.5200 H   0  0  0  0  0  0  0  0  0  0  0  0
  -11.6100  -33.9890   58.1020 H   0  0  0  0  0  0  0  0  0  0  0  0
  -12.8780  -30.9200   60.9660 H   0  0  0  0  0  0  0  0  0  0  0  0
  -14.7220  -30.2060   59.3850 H   0  0  0  0  0  0  0  0  0  0  0  0
  1 16  1  0
  2 10  1  0
  2  1  1  0
  3  2  2  0
  4  3  1  0
  4  9  2  0
  5 27  1  0
  5  6  1  0
  5  4  1  0
  6  7  2  0
  7 11  1  0
  7  8  1  0
  9  8  1  0
  9  1  1  0
 12 13  1  0
 13 18  1  0
 13 14  2  0
 14 19  1  0
 15 20  1  0
 15 14  1  0
 16 15  2  0
 17 16  1  0
 17 12  2  0
 21 17  1  0
 22 12  1  0
 23 22  1  0
 24 23  1  0
 25 23  1  0
 26 23  1  0
 27 29  1  0
 28 27  1  0
 29 30  2  0
 30 31  1  0
 30 32  1  0
 32 37  1  0
 33 32  2  0
 33 34  1  0
 34 35  2  0
 35 36  1  0
 36 40  1  0
 37 41  1  0
 37 36  2  0
 38 33  1  0
 39 34  1  0
M  END
>  <minimizedAffinity>  (324) 
-8.78797054

$$$$

     RDKit          3D

 33 32  0  0  0  0  0  0  0  0999 V2000
  -17.1530  -26.3130   55.8340 O   0  0  0  0  0  1  0  0  0  0  0  0
  -18.0160  -27.5070   55.5520 C   0  0  0  0  0  2  0  0  0  0  0  0
  -19.5100  -27.3760   55.5810 N   0  0  0  0  0  0  0  0  0  0  0  0
  -20.1400  -26.0520   55.8930 C   0  0  0  0  0  0  0  0  0  0  0  0
  -19.4110  -24.7760   56.1940 N   0  0  0  0  0  0  0  0  0  0  0  0
  -20.4310  -23.7050   56.4450 N   0  0  0  0  0  0  0  0  0  0  0  0
  -21.7920  -24.3200   56.2990 C   0  0  0  0  0  0  0  0  0  0  0  0
  -23.1710  -23.7460   56.4330 N   0  0  0  0  0  0  0  0  0  0  0  0
  -24.3710  -24.6220   56.2260 N   0  0  0  0  0  0  0  0  0  0  0  0
  -24.1920  -26.0710   55.8840 C   0  0  0  0  0  0  0  0  0  0  0  0
  -22.8120  -26.6450   55.7500 C   0  0  0  0  0  0  0  0  0  0  0  0
  -21.6120  -25.7690   55.9580 C   0  0  0  0  0  0  0  0  0  0  0  0
  -20.0770  -28.1600   55.3960 H   0  0  0  0  0  0  0  0  0  0  0  0
  -20.2410  -22.7650   56.6670 H   0  0  0  0  0  0  0  0  0  0  0  0
  -22.6890  -27.6420   55.5150 H   0  0  0  0  0  0  0  0  0  0  0  0
  -25.3920  -26.9470   55.6770 C   0  0  0  0  0  0  0  0  0  0  0  0
  -25.2130  -28.4070   55.3850 C   0  0  0  0  0  0  0  0  0  0  0  0
  -26.4130  -29.2830   55.1780 C   0  0  0  0  0  0  0  0  0  0  0  0
  -27.7920  -28.6990   55.2620 C   0  0  0  0  0  0  0  0  0  0  0  0
  -27.9700  -27.2380   55.5530 N   0  0  0  0  0  0  0  0  0  0  0  0
  -26.7710  -26.3620   55.7610 C   0  0  0  0  0  0  0  0  0  0  0  0
  -24.2640  -28.8100   55.3280 H   0  0  0  0  0  0  0  0  0  0  0  0
  -26.2900  -30.2880   54.9780 H   0  0  0  0  0  0  0  0  0  0  0  0
  -28.6170  -29.3010   55.1190 H   0  0  0  0  0  0  0  0  0  0  0  0
  -26.8930  -25.3570   55.9610 H   0  0  0  0  0  0  0  0  0  0  0  0
  -17.3850  -28.8320   55.2400 C   0  0  0  0  0 15  0  0  0  0  0  0
  -17.3270  -30.0800   54.4100 C   0  0  0  0  0  3  0  0  0  0  0  0
  -16.3490  -29.8780   55.5300 C   0  0  0  0  0  2  0  0  0  0  0  0
  -16.9350  -29.7770   55.0180 H   0  0  0  0  0  0  0  0  0  0  0  0
  -17.7050  -30.6780   53.6080 H   0  0  0  0  0  0  0  0  0  0  0  0
  -16.7110  -30.9560   54.4030 H   0  0  0  0  0  0  0  0  0  0  0  0
  -15.5200  -30.2250   56.1110 H   0  0  0  0  0  0  0  0  0  0  0  0
  -16.1750  -29.1070   56.2520 H   0  0  0  0  0  0  0  0  0  0  0  0
  2  3  1  0
  2  1  1  0
  3  4  1  0
  4 12  1  0
  4  5  2  0
  5  6  1  0
  6 14  1  0
  7  8  1  0
  7  6  1  0
  9  8  2  0
 10  9  1  0
 11 10  2  0
 11 12  1  0
 12  7  2  0
 13  3  1  0
 15 11  1  0
 16 21  1  0
 16 10  1  0
 17 16  2  0
 18 19  2  0
 18 17  1  0
 19 20  1  0
 20 21  2  0
 21 25  1  0
 22 17  1  0
 23 18  1  0
 24 19  1  0
 27 29  1  0
 28 32  1  0
 28 33  1  0
 30 27  1  0
 31 27  1  0
M  END
>  <minimizedAffinity>  (325) 
-8.14778233

$$$$

     RDKit          3D

 67 70  0  0  1  0  0  0  0  0999 V2000
  -19.1370  -26.5840   55.6520 C   0  0  0  0  0  0  0  0  0  0  0  0
  -17.6470  -26.7520   55.5780 C   0  0  0  0  0  0  0  0  0  0  0  0
  -17.0490  -28.1250   55.5180 C   0  0  0  0  0  0  0  0  0  0  0  0
  -17.9390  -29.3330   55.5320 C   0  0  0  0  0  0  0  0  0  0  0  0
  -19.4280  -29.1660   55.6070 C   0  0  0  0  0  0  0  0  0  0  0  0
  -20.0270  -27.7920   55.6660 C   0  0  0  0  0  0  0  0  0  0  0  0
  -17.0350  -25.9200   55.5690 H   0  0  0  0  0  0  0  0  0  0  0  0
  -20.0410  -29.9970   55.6160 H   0  0  0  0  0  0  0  0  0  0  0  0
  -21.5160  -27.6250   55.7400 N   0  0  0  0  0  0  0  0  0  0  0  0
  -22.4160  -28.6140   55.0610 C   0  0  0  0  0  0  0  0  0  0  0  0
  -23.9040  -28.4480   55.1350 N   0  0  0  0  0  0  0  0  0  0  0  0
  -24.8050  -29.4360   54.4560 C   0  0  0  0  0  3  0  0  0  0  0  0
  -24.2160  -30.5920   53.7030 C   0  0  0  0  0  0  0  0  0  0  0  0
  -24.8470  -31.7190   52.9390 C   0  0  0  0  0  0  0  0  0  0  0  0
  -23.7480  -32.5820   52.3930 C   0  0  0  0  0  0  0  0  0  0  0  0
  -22.4380  -31.9890   52.8200 N   0  0  0  0  0  0  0  0  0  0  0  0
  -22.7270  -30.7600   53.6290 C   0  0  0  0  0  0  0  0  0  0  0  0
  -21.8270  -29.7700   54.3080 N   0  0  0  0  0  2  0  0  0  0  0  0
  -21.9020  -26.8660   56.2350 H   0  0  0  0  0  0  0  0  0  0  0  0
  -25.8590  -31.8730   52.8120 H   0  0  0  0  0  0  0  0  0  0  0  0
  -23.8710  -33.4340   51.8250 H   0  0  0  0  0  0  0  0  0  0  0  0
  -21.5450  -32.3450   52.6060 H   0  0  0  0  0  0  0  0  0  0  0  0
  -26.2940  -29.2700   54.5290 N   0  0  0  0  0  0  0  0  0  0  0  0
  -26.8080  -29.0840   53.7110 H   0  0  0  0  0  0  0  0  0  0  0  0
  -26.9980  -29.3870   55.8480 C   0  0  0  0  0  0  0  0  0  0  0  0
  -26.7280  -30.5620   56.7410 C   0  0  0  0  0  0  0  0  0  0  0  0
  -27.4320  -30.6790   58.0590 C   0  0  0  0  0  0  0  0  0  0  0  0
  -28.4070  -29.6220   58.4860 C   0  0  0  0  0  0  0  0  0  0  0  0
  -28.6780  -28.4480   57.5930 C   0  0  0  0  0  0  0  0  0  0  0  0
  -29.6520  -27.3900   58.0190 F   0  0  0  0  0  0  0  0  0  0  0  0
  -27.9730  -28.3300   56.2740 C   0  0  0  0  0  0  0  0  0  0  0  0
  -26.0570  -31.2890   56.4470 H   0  0  0  0  0  0  0  0  0  0  0  0
  -27.2460  -31.4870   58.6740 H   0  0  0  0  0  0  0  0  0  0  0  0
  -28.8920  -29.7020   59.3930 H   0  0  0  0  0  0  0  0  0  0  0  0
  -28.2440  -27.1560   55.3810 C   0  0  0  0  0  0  0  0  0  0  0  0
  -27.7880  -25.7850   55.7850 N   0  0  0  0  0  0  0  0  0  0  0  0
  -28.9710  -27.3520   54.0840 O   0  0  0  0  0  0  0  0  0  0  0  0
  -27.3100  -25.6570   56.6370 H   0  0  0  0  0  0  0  0  0  0  0  0
  -27.9650  -25.0140   55.1990 H   0  0  0  0  0  0  0  0  0  0  0  0
  -15.5600  -28.2930   55.4440 C   0  0  0  0  0  0  0  0  0  0  0  0
  -14.9250  -27.4310   55.4340 H   0  0  0  0  0  0  0  0  0  0  0  0
  -15.1330  -29.2720   55.4020 H   0  0  0  0  0  0  0  0  0  0  0  0
  -14.4980  -28.4110   55.3920 H   0  0  0  0  0  0  0  0  0  0  0  0
  -17.3400  -30.7070   55.4730 N   0  0  0  0  0  0  0  0  0  0  0  0
  -16.8730  -31.2650   54.1600 C   0  0  0  0  0  0  0  0  0  0  0  0
  -17.0060  -30.4480   52.9080 O   0  0  0  0  0  0  0  0  0  0  0  0
  -17.2080  -31.5220   56.7240 C   0  0  0  0  0  0  0  0  0  0  0  0
  -17.5410  -31.1240   57.6590 H   0  0  0  0  0  0  0  0  0  0  0  0
  -16.7810  -32.5030   56.6810 H   0  0  0  0  0  0  0  0  0  0  0  0
  -17.1140  -32.1040   57.6170 H   0  0  0  0  0  0  0  0  0  0  0  0
  -16.2740  -32.6390   54.1000 C   0  0  0  0  0  0  0  0  0  0  0  0
  -16.8980  -33.4990   54.2250 H   0  0  0  0  0  0  0  0  0  0  0  0
  -15.8470  -33.6180   54.0580 H   0  0  0  0  0  0  0  0  0  0  0  0
  -14.8030  -32.8050   53.8660 N   0  0  0  0  0  0  0  0  0  0  0  0
  -14.3040  -33.2690   52.5280 C   0  0  0  0  0  0  0  0  0  0  0  0
  -15.0000  -33.4820   51.7430 H   0  0  0  0  0  0  0  0  0  0  0  0
  -13.2550  -33.3880   52.3600 H   0  0  0  0  0  0  0  0  0  0  0  0
  -13.9500  -33.6010   51.5750 H   0  0  0  0  0  0  0  0  0  0  0  0
  -13.8290  -32.5060   54.9660 C   0  0  0  0  0  0  0  0  0  0  0  0
  -12.7780  -32.6250   54.7980 H   0  0  0  0  0  0  0  0  0  0  0  0
  -14.1840  -32.1750   55.9200 H   0  0  0  0  0  0  0  0  0  0  0  0
  -13.1340  -32.2940   55.7520 H   0  0  0  0  0  0  0  0  0  0  0  0
  -19.7360  -25.2110   55.7120 O   0  0  0  0  0  0  0  0  0  0  0  0
  -20.4440  -24.7550   56.9540 C   0  0  0  0  0  0  0  0  0  0  0  0
  -20.8710  -23.7750   56.9970 H   0  0  0  0  0  0  0  0  0  0  0  0
  -20.5220  -25.4100   57.7970 H   0  0  0  0  0  0  0  0  0  0  0  0
  -20.9490  -24.4290   57.8390 H   0  0  0  0  0  0  0  0  0  0  0  0
  1  6  1  0
  1 63  1  0
  2  1  2  0
  3  4  2  0
  3  2  1  0
  4  5  1  0
  5  8  1  0
  5  6  2  0
  6  9  1  0
  7  2  1  0
  9 19  1  0
 10 11  2  0
 10  9  1  0
 12 23  1  0
 12 11  1  0
 13 12  1  0
 14 13  1  0
 15 16  1  0
 15 14  2  0
 16 17  1  0
 17 13  2  0
 17 18  1  0
 18 10  1  0
 20 14  1  0
 21 15  1  0
 22 16  1  0
 23 25  1  0
 24 23  1  0
 25 31  2  0
 25 26  1  0
 26 27  2  0
 27 28  1  0
 27 33  1  0
 28 34  1  0
 29 30  1  0
 29 28  2  0
 31 29  1  0
 32 26  1  0
 35 36  1  0
 35 31  1  0
 36 38  1  0
 37 35  2  0
 39 36  1  0
 40  3  1  0
 41 40  1  0
 42 40  1  0
 43 40  1  0
 44  4  1  0
 44 47  1  0
 45 44  1  0
 46 45  2  0
 47 50  1  0
 47 48  1  0
 49 47  1  0
 51 45  1  0
 51 52  1  0
 53 51  1  0
 54 51  1  0
 54 59  1  0
 55 54  1  0
 56 55  1  0
 57 55  1  0
 58 55  1  0
 59 62  1  0
 59 61  1  0
 60 59  1  0
 63 64  1  0
 64 65  1  0
 64 66  1  0
 64 67  1  0
M  END
>  <minimizedAffinity>  (326) 
-8.67586136

$$$$

     RDKit          3D

 38 39  0  0  0  0  0  0  0  0999 V2000
  -19.9900  -26.7610   56.4540 C   0  0  0  0  0  0  0  0  0  0  0  0
  -19.2530  -27.2570   55.2460 C   0  0  0  0  0  0  0  0  0  0  0  0
  -19.6420  -26.9850   57.3990 H   0  0  0  0  0  0  0  0  0  0  0  0
  -19.6010  -27.0330   54.3010 H   0  0  0  0  0  0  0  0  0  0  0  0
  -23.7810  -25.7850   55.8010 C   0  0  0  0  0  0  0  0  0  0  0  0
  -23.7210  -24.2940   55.9570 C   0  0  0  0  0  0  0  0  0  0  0  0
  -22.4170  -23.6250   56.2780 N   0  0  0  0  0  0  0  0  0  0  0  0
  -21.1730  -24.4480   56.4440 C   0  0  0  0  0  0  0  0  0  0  0  0
  -21.2340  -25.9380   56.2880 C   0  0  0  0  0  0  0  0  0  0  0  0
  -22.5380  -26.6070   55.9670 C   0  0  0  0  0  0  0  0  0  0  0  0
  -24.5760  -23.7280   55.8430 H   0  0  0  0  0  0  0  0  0  0  0  0
  -20.2760  -23.9880   56.6650 H   0  0  0  0  0  0  0  0  0  0  0  0
  -22.5790  -27.6330   55.8600 H   0  0  0  0  0  0  0  0  0  0  0  0
  -26.3790  -25.7720   55.8130 N   0  0  0  0  0  0  0  0  0  0  0  0
  -25.0850  -26.4530   55.4800 C   0  0  0  0  0  0  0  0  0  0  0  0
  -25.0950  -27.8020   54.8250 O   0  0  0  0  0  0  0  0  0  0  0  0
  -26.3730  -24.8860   56.2430 H   0  0  0  0  0  0  0  0  0  0  0  0
  -27.6830  -26.4400   55.4920 C   0  0  0  0  0  0  0  0  0  0  0  0
  -28.6060  -25.9540   55.7300 H   0  0  0  0  0  0  0  0  0  0  0  0
  -27.6900  -27.4030   55.0250 H   0  0  0  0  0  0  0  0  0  0  0  0
  -28.6130  -26.9170   55.2630 H   0  0  0  0  0  0  0  0  0  0  0  0
  -18.0090  -28.0790   55.4120 C   0  0  0  0  0  0  0  0  0  0  0  0
  -16.6720  -27.4060   55.5060 C   0  0  0  0  0  0  0  0  0  0  0  0
  -15.4280  -28.2280   55.6720 C   0  0  0  0  0  0  0  0  0  0  0  0
  -15.5220  -29.7240   55.7430 C   0  0  0  0  0  0  0  0  0  0  0  0
  -16.8590  -30.3970   55.6490 C   0  0  0  0  0  0  0  0  0  0  0  0
  -18.1030  -29.5740   55.4840 C   0  0  0  0  0  0  0  0  0  0  0  0
  -14.5080  -27.7650   55.7360 H   0  0  0  0  0  0  0  0  0  0  0  0
  -14.6660  -30.2890   55.8580 H   0  0  0  0  0  0  0  0  0  0  0  0
  -16.9240  -31.4260   55.6990 H   0  0  0  0  0  0  0  0  0  0  0  0
  -16.5780  -25.9110   55.4340 C   0  0  0  0  0  0  0  0  0  0  0  0
  -17.4650  -25.3240   55.3160 H   0  0  0  0  0  0  0  0  0  0  0  0
  -15.6240  -25.4310   55.5010 H   0  0  0  0  0  0  0  0  0  0  0  0
  -16.5110  -24.8440   55.3830 H   0  0  0  0  0  0  0  0  0  0  0  0
  -19.4400  -30.2480   55.3900 C   0  0  0  0  0  0  0  0  0  0  0  0
  -19.5070  -31.3140   55.4410 H   0  0  0  0  0  0  0  0  0  0  0  0
  -20.3270  -29.6610   55.2710 H   0  0  0  0  0  0  0  0  0  0  0  0
  -20.3940  -30.7280   55.3230 H   0  0  0  0  0  0  0  0  0  0  0  0
  1  3  1  0
  2 22  1  0
  2  1  2  0
  4  2  1  0
  5  6  2  0
  5 10  1  0
  6  7  1  0
  7  8  2  0
  8 12  1  0
  9  8  1  0
  9  1  1  0
 10  9  2  0
 11  6  1  0
 13 10  1  0
 14 17  1  0
 15  5  1  0
 15 14  1  0
 16 15  2  0
 18 19  1  0
 18 14  1  0
 20 18  1  0
 21 18  1  0
 22 27  2  0
 22 23  1  0
 23 24  2  0
 24 28  1  0
 24 25  1  0
 25 29  1  0
 26 30  1  0
 26 25  2  0
 27 26  1  0
 31 33  1  0
 31 23  1  0
 32 31  1  0
 34 31  1  0
 35 36  1  0
 35 27  1  0
 37 35  1  0
 38 35  1  0
M  END
>  <minimizedAffinity>  (327) 
-8.10758781

$$$$

     RDKit          3D

 41 44  0  0  0  0  0  0  0  0999 V2000
  -19.4390  -27.0250   55.6790 C   0  0  0  0  0  0  0  0  0  0  0  0
  -19.0420  -28.2150   54.8560 C   0  0  0  0  0  0  0  0  0  0  0  0
  -17.5970  -28.6030   54.7460 C   0  0  0  0  0  0  0  0  0  0  0  0
  -16.5490  -27.8010   55.4590 C   0  0  0  0  0  0  0  0  0  0  0  0
  -16.9460  -26.6110   56.2820 C   0  0  0  0  0  0  0  0  0  0  0  0
  -18.3910  -26.2230   56.3920 N   0  0  0  0  0  0  0  0  0  0  0  0
  -19.7630  -28.7670   54.3650 H   0  0  0  0  0  0  0  0  0  0  0  0
  -15.5550  -28.0680   55.3840 H   0  0  0  0  0  0  0  0  0  0  0  0
  -16.2250  -26.0590   56.7730 H   0  0  0  0  0  0  0  0  0  0  0  0
  -23.7740  -25.8620   56.0080 C   0  0  0  0  0  0  0  0  0  0  0  0
  -23.3980  -27.2100   55.4670 C   0  0  0  0  0  0  0  0  0  0  0  0
  -21.9530  -27.5980   55.3580 C   0  0  0  0  0  0  0  0  0  0  0  0
  -20.8840  -26.6380   55.7880 C   0  0  0  0  0  0  0  0  0  0  0  0
  -21.2600  -25.2900   56.3290 C   0  0  0  0  0  0  0  0  0  0  0  0
  -22.7050  -24.9020   56.4390 C   0  0  0  0  0  0  0  0  0  0  0  0
  -24.1330  -27.8710   55.1710 H   0  0  0  0  0  0  0  0  0  0  0  0
  -21.6940  -28.5250   54.9860 H   0  0  0  0  0  0  0  0  0  0  0  0
  -20.5240  -24.6290   56.6250 H   0  0  0  0  0  0  0  0  0  0  0  0
  -22.9630  -23.9750   56.8110 H   0  0  0  0  0  0  0  0  0  0  0  0
  -25.2190  -25.4750   56.1180 O   0  0  0  0  0  0  0  0  0  0  0  0
  -26.2900  -26.4700   55.7820 C   0  0  0  0  0  0  0  0  0  0  0  0
  -26.0230  -27.4560   55.4640 H   0  0  0  0  0  0  0  0  0  0  0  0
  -27.3200  -26.1930   55.8600 H   0  0  0  0  0  0  0  0  0  0  0  0
  -27.0540  -27.1800   55.5420 H   0  0  0  0  0  0  0  0  0  0  0  0
  -17.2000  -29.7920   53.9230 C   0  0  0  0  0  0  0  0  0  0  0  0
  -17.4710  -29.9820   52.4600 C   0  0  0  0  0  0  0  0  0  0  0  0
  -16.9010  -31.3080   52.0510 N   0  0  0  0  0  0  0  0  0  0  0  0
  -16.2780  -31.9380   53.2620 N   0  0  0  0  0  0  0  0  0  0  0  0
  -16.4640  -31.0010   54.4190 C   0  0  0  0  0  0  0  0  0  0  0  0
  -17.9620  -29.3170   51.8430 H   0  0  0  0  0  0  0  0  0  0  0  0
  -16.9300  -31.6970   51.1480 H   0  0  0  0  0  0  0  0  0  0  0  0
  -15.9940  -31.2320   55.8240 C   0  0  0  0  0  0  0  0  0  0  0  0
  -16.8380  -32.0260   56.7760 C   0  0  0  0  0  0  0  0  0  0  0  0
  -16.3700  -32.2580   58.1820 C   0  0  0  0  0  0  0  0  0  0  0  0
  -15.0550  -31.6950   58.6370 C   0  0  0  0  0  0  0  0  0  0  0  0
  -14.2100  -30.9010   57.6850 C   0  0  0  0  0  0  0  0  0  0  0  0
  -14.6800  -30.6690   56.2790 N   0  0  0  0  0  0  0  0  0  0  0  0
  -17.7430  -32.4140   56.4640 H   0  0  0  0  0  0  0  0  0  0  0  0
  -16.9510  -32.8050   58.8370 H   0  0  0  0  0  0  0  0  0  0  0  0
  -14.7320  -31.8540   59.6030 H   0  0  0  0  0  0  0  0  0  0  0  0
  -13.3070  -30.5140   57.9970 H   0  0  0  0  0  0  0  0  0  0  0  0
  1 13  1  0
  1  6  1  0
  2  1  2  0
  3  2  1  0
  3  4  2  0
  4  5  1  0
  5  6  2  0
  5  9  1  0
  7  2  1  0
  8  4  1  0
 10 20  1  0
 10 15  1  0
 11 10  2  0
 12 11  1  0
 12 13  2  0
 13 14  1  0
 14 15  2  0
 14 18  1  0
 15 19  1  0
 16 11  1  0
 17 12  1  0
 21 23  1  0
 21 20  1  0
 22 21  1  0
 24 21  1  0
 25 29  1  0
 25  3  1  0
 26 25  2  0
 27 26  1  0
 27 28  1  0
 28 29  2  0
 29 32  1  0
 30 26  1  0
 31 27  1  0
 32 37  2  0
 32 33  1  0
 33 34  2  0
 34 35  1  0
 34 39  1  0
 35 40  1  0
 36 41  1  0
 36 35  2  0
 37 36  1  0
 38 33  1  0
M  END
>  <minimizedAffinity>  (328) 
-8.26935577

$$$$

     RDKit          3D

 38 41  0  0  0  0  0  0  0  0999 V2000
  -26.3270  -26.3120   55.6280 O   0  0  0  0  0  0  0  0  0  0  0  0
  -24.8370  -26.1790   55.7400 C   0  0  0  0  0  0  0  0  0  0  0  0
  -24.0890  -24.9280   56.0940 N   0  0  0  0  0  0  0  0  0  0  0  0
  -22.6230  -25.2490   56.0910 C   0  0  0  0  0  0  0  0  0  0  0  0
  -21.4110  -24.4090   56.3660 C   0  0  0  0  0  0  0  0  0  0  0  0
  -20.0430  -25.0170   56.2860 C   0  0  0  0  0  0  0  0  0  0  0  0
  -19.8860  -26.4660   55.9300 C   0  0  0  0  0  0  0  0  0  0  0  0
  -21.0980  -27.3060   55.6540 C   0  0  0  0  0  0  0  0  0  0  0  0
  -22.4670  -26.6970   55.7350 C   0  0  0  0  0  0  0  0  0  0  0  0
  -23.8350  -27.2730   55.5180 C   0  0  0  0  0  0  0  0  0  0  0  0
  -24.1460  -28.6910   55.1440 C   0  0  0  0  0  0  0  0  0  0  0  0
  -24.4890  -24.0510   56.2940 H   0  0  0  0  0  0  0  0  0  0  0  0
  -21.5190  -23.4120   56.6110 H   0  0  0  0  0  0  0  0  0  0  0  0
  -19.2090  -24.4390   56.4750 H   0  0  0  0  0  0  0  0  0  0  0  0
  -20.9900  -28.3030   55.4090 H   0  0  0  0  0  0  0  0  0  0  0  0
  -23.3810  -29.3700   55.0140 H   0  0  0  0  0  0  0  0  0  0  0  0
  -18.5180  -27.0750   55.8490 C   0  0  0  0  0  0  0  0  0  0  0  0
  -17.3120  -26.2600   56.2140 C   0  0  0  0  0  0  0  0  0  0  0  0
  -15.9430  -26.8690   56.1330 C   0  0  0  0  0  0  0  0  0  0  0  0
  -15.7810  -28.2920   55.6870 C   0  0  0  0  0  0  0  0  0  0  0  0
  -16.9860  -29.1060   55.3230 N   0  0  0  0  0  0  0  0  0  0  0  0
  -18.3550  -28.4980   55.4030 C   0  0  0  0  0  0  0  0  0  0  0  0
  -17.4240  -25.2810   56.5200 H   0  0  0  0  0  0  0  0  0  0  0  0
  -15.1140  -26.3090   56.3840 H   0  0  0  0  0  0  0  0  0  0  0  0
  -14.8390  -28.7110   55.6320 H   0  0  0  0  0  0  0  0  0  0  0  0
  -19.1850  -29.0580   55.1520 H   0  0  0  0  0  0  0  0  0  0  0  0
  -25.5710  -29.1230   54.9600 C   0  0  0  0  0  0  0  0  0  0  0  0
  -26.1980  -29.0790   53.5980 C   0  0  0  0  0  0  0  0  0  0  0  0
  -27.6230  -29.5110   53.4150 C   0  0  0  0  0  0  0  0  0  0  0  0
  -28.2500  -29.4680   52.0530 Br  0  0  0  0  0  0  0  0  0  0  0  0
  -28.4200  -29.9870   54.5920 C   0  0  0  0  0  0  0  0  0  0  0  0
  -27.7930  -30.0310   55.9550 C   0  0  0  0  0  0  0  0  0  0  0  0
  -28.5910  -30.5070   57.1330 Br  0  0  0  0  0  0  0  0  0  0  0  0
  -26.3680  -29.5990   56.1390 C   0  0  0  0  0  0  0  0  0  0  0  0
  -25.6490  -28.7520   52.7880 H   0  0  0  0  0  0  0  0  0  0  0  0
  -25.9370  -29.6290   57.0750 H   0  0  0  0  0  0  0  0  0  0  0  0
  -29.8450  -30.4190   54.4080 O   0  0  0  0  0  0  0  0  0  0  0  0
  -30.2370  -30.3920   53.5580 H   0  0  0  0  0  0  0  0  0  0  0  0
  1  2  2  0
  2  3  1  0
  3 12  1  0
  4  3  1  0
  4  5  1  0
  5 13  1  0
  6  5  2  0
  6 14  1  0
  7  6  1  0
  8  9  1  0
  8  7  2  0
  9  4  2  0
 10  9  1  0
 10  2  1  0
 11 10  2  0
 15  8  1  0
 16 11  1  0
 17  7  1  0
 17 18  1  0
 18 23  1  0
 19 18  2  0
 19 24  1  0
 20 19  1  0
 21 22  1  0
 21 20  2  0
 22 17  2  0
 25 20  1  0
 26 22  1  0
 27 11  1  0
 27 34  1  0
 28 27  2  0
 29 28  1  0
 29 31  2  0
 30 29  1  0
 31 32  1  0
 32 34  2  0
 32 33  1  0
 34 36  1  0
 35 28  1  0
 37 31  1  0
 38 37  1  0
M  END
>  <minimizedAffinity>  (329) 
-9.62723827

$$$$

     RDKit          3D

 71 67  0  0  0  0  0  0  0  0999 V2000
  -23.1890  -26.7680   55.4670 C   0  0  0  0  0  0  0  0  0  0  0  0
  -22.3900  -25.5960   55.9530 C   0  0  0  0  0  0  0  0  0  0  0  0
  -20.9440  -25.8690   55.6630 C   0  0  0  0  0  0  0  0  0  0  0  0
  -19.7000  -25.0710   55.9190 N   0  0  0  0  0  0  0  0  0  0  0  0
  -18.3630  -25.6130   55.5090 C   0  0  0  0  0  0  0  0  0  0  0  0
  -18.2690  -26.9540   54.8430 N   0  0  0  0  0  0  0  0  0  0  0  0
  -19.5130  -27.7520   54.5870 C   0  0  0  0  0  0  0  0  0  0  0  0
  -20.8500  -27.2100   54.9970 C   0  0  0  0  0  0  0  0  0  0  0  0
  -22.2390  -27.7660   54.8750 S   0  0  0  0  0  0  0  0  0  0  0  0
  -22.7680  -24.7500   56.4080 H   0  0  0  0  0  0  0  0  0  0  0  0
  -17.5070  -25.0630   55.6850 H   0  0  0  0  0  0  0  0  0  0  0  0
  -26.1690  -27.0640   55.6440 C   0  0  0  0  0  1  0  0  0  0  0  0
  -24.6790  -26.9160   55.5550 C   0  0  0  0  0  2  0  0  0  0  0  0
  -29.9040  -27.4840   56.6170 C   0  0  0  0  0  2  0  0  0  0  0  0
  -30.0020  -27.3970   55.1230 C   0  0  0  0  0  2  0  0  0  0  0  0
  -28.6150  -27.2290   54.5760 N   0  0  0  0  0  1  0  0  0  0  0  0
  -27.6600  -27.2120   55.7330 C   0  0  0  0  0  2  0  0  0  0  0  0
  -28.4560  -27.3700   56.9950 C   0  0  0  0  0  3  0  0  0  0  0  0
  -30.8830  -27.5500   56.1890 H   0  0  0  0  0  0  0  0  0  0  0  0
  -30.9020  -27.4460   54.5470 H   0  0  0  0  0  0  0  0  0  0  0  0
  -29.9040  -27.3190   54.0600 H   0  0  0  0  0  0  0  0  0  0  0  0
  -28.3650  -27.1410   53.5910 H   0  0  0  0  0  0  0  0  0  0  0  0
  -27.2400  -27.1090   54.7550 H   0  0  0  0  0  0  0  0  0  0  0  0
  -28.0610  -27.3970   57.9880 H   0  0  0  0  0  0  0  0  0  0  0  0
  -29.1590  -27.4890   57.7930 H   0  0  0  0  0  0  0  0  0  0  0  0
  -31.0520  -27.6550   57.5670 O   0  0  0  0  0  0  0  0  0  0  0  0
  -31.7310  -25.1710   57.9070 O   0  0  0  0  0  1  0  0  0  0  0  0
  -31.4470  -26.5290   58.4760 C   0  0  0  0  0  2  0  0  0  0  0  0
  -31.5570  -26.7610   59.9540 N   0  0  0  0  0  1  0  0  0  0  0  0
  -31.9520  -25.6350   60.8620 C   0  0  0  0  0  3  0  0  0  0  0  0
  -32.0620  -25.8670   62.3410 C   0  0  0  0  0  2  0  0  0  0  0  0
  -31.7770  -27.2260   62.9100 O   0  0  0  0  0  1  0  0  0  0  0  0
  -31.3820  -28.3520   62.0010 C   0  0  0  0  0  3  0  0  0  0  0  0
  -31.2720  -28.1190   60.5230 C   0  0  0  0  0  2  0  0  0  0  0  0
  -32.1550  -24.6660   60.4570 H   0  0  0  0  0  0  0  0  0  0  0  0
  -32.2340  -24.8310   61.5110 H   0  0  0  0  0  0  0  0  0  0  0  0
  -32.3440  -25.0640   62.9890 H   0  0  0  0  0  0  0  0  0  0  0  0
  -32.1410  -26.0330   63.3940 H   0  0  0  0  0  0  0  0  0  0  0  0
  -31.1790  -29.3210   62.4070 H   0  0  0  0  0  0  0  0  0  0  0  0
  -31.1010  -29.1550   61.3530 H   0  0  0  0  0  0  0  0  0  0  0  0
  -30.9910  -28.9220   59.8750 H   0  0  0  0  0  0  0  0  0  0  0  0
  -31.1930  -27.9540   59.4680 H   0  0  0  0  0  0  0  0  0  0  0  0
  -19.4190  -29.0930   53.9210 N   0  0  0  0  0  0  0  0  0  0  0  0
  -19.9810  -29.2930   53.1370 H   0  0  0  0  0  0  0  0  0  0  0  0
  -18.4710  -30.1280   54.4490 C   0  0  0  0  0  0  0  0  0  0  0  0
  -18.3940  -30.3920   55.9240 C   0  0  0  0  0  0  0  0  0  0  0  0
  -17.4450  -31.4270   56.4520 C   0  0  0  0  0  0  0  0  0  0  0  0
  -16.5740  -32.1980   55.5050 C   0  0  0  0  0  0  0  0  0  0  0  0
  -16.6510  -31.9340   54.0310 C   0  0  0  0  0  0  0  0  0  0  0  0
  -15.6750  -32.8440   53.3450 C   0  0  0  0  0  0  0  0  0  0  0  0
  -14.9950  -33.6710   54.3960 N   0  0  0  0  0  0  0  0  0  0  0  0
  -15.5500  -33.2720   55.7310 N   0  0  0  0  0  0  0  0  0  0  0  0
  -17.5990  -30.8990   53.5030 C   0  0  0  0  0  0  0  0  0  0  0  0
  -18.9930  -29.8620   56.5750 H   0  0  0  0  0  0  0  0  0  0  0  0
  -17.3920  -31.6090   57.4660 H   0  0  0  0  0  0  0  0  0  0  0  0
  -15.5020  -32.8930   52.3290 H   0  0  0  0  0  0  0  0  0  0  0  0
  -17.6520  -30.7170   52.4880 H   0  0  0  0  0  0  0  0  0  0  0  0
  -15.1520  -33.8450   57.0590 C   0  0  0  0  0  0  0  0  0  0  0  0
  -15.5140  -34.8080   57.3560 H   0  0  0  0  0  0  0  0  0  0  0  0
  -14.8690  -34.2550   58.0060 H   0  0  0  0  0  0  0  0  0  0  0  0
  -14.2480  -33.0700   57.9700 C   0  0  0  0  0  0  0  0  0  0  0  0
  -14.7700  -31.8710   58.7040 C   0  0  0  0  0  0  0  0  0  0  0  0
  -13.8660  -31.0960   59.6160 C   0  0  0  0  0  0  0  0  0  0  0  0
  -12.4380  -31.5200   59.7930 C   0  0  0  0  0  0  0  0  0  0  0  0
  -11.9150  -32.7190   59.0590 C   0  0  0  0  0  0  0  0  0  0  0  0
  -12.8200  -33.4950   58.1480 C   0  0  0  0  0  0  0  0  0  0  0  0
  -15.7530  -31.5790   58.5820 H   0  0  0  0  0  0  0  0  0  0  0  0
  -14.2250  -30.2710   60.1200 H   0  0  0  0  0  0  0  0  0  0  0  0
  -11.8160  -30.9870   60.4200 H   0  0  0  0  0  0  0  0  0  0  0  0
  -10.9330  -33.0110   59.1810 H   0  0  0  0  0  0  0  0  0  0  0  0
  -12.4600  -34.3190   57.6430 H   0  0  0  0  0  0  0  0  0  0  0  0
  1 13  1  0
  1  2  2  0
  2 10  1  0
  3  4  1  0
  3  2  1  0
  5 11  1  0
  5  4  2  0
  6  5  1  0
  7  6  2  0
  7  8  1  0
  8  3  2  0
  9  8  1  0
  9  1  1  0
 13 12  1  0
 14 26  1  0
 17 18  1  0
 18 25  1  0
 18 24  1  0
 19 14  1  0
 20 15  1  0
 21 15  1  0
 22 16  1  0
 23 17  1  0
 26 28  1  0
 27 28  1  0
 29 30  1  0
 30 36  1  0
 31 37  1  0
 31 38  1  0
 33 39  1  0
 33 32  1  0
 35 30  1  0
 40 33  1  0
 41 34  1  0
 42 34  1  0
 43 45  1  0
 43  7  1  0
 44 43  1  0
 45 46  1  0
 46 47  2  0
 46 54  1  0
 47 55  1  0
 48 52  1  0
 48 47  1  0
 49 48  2  0
 50 49  1  0
 50 51  2  0
 51 52  1  0
 52 58  1  0
 53 49  1  0
 53 45  2  0
 56 50  1  0
 57 53  1  0
 58 59  1  0
 58 61  1  0
 58 60  1  0
 61 66  2  0
 61 62  1  0
 62 63  2  0
 63 64  1  0
 63 68  1  0
 64 69  1  0
 65 70  1  0
 65 64  2  0
 66 65  1  0
 67 62  1  0
 71 66  1  0
M  END
>  <minimizedAffinity>  (330) 
-11.2008343

$$$$

     RDKit          3D

 59 58  0  0  0  0  0  0  0  0999 V2000
  -18.0680  -31.6560   55.1350 C   0  0  0  0  0  0  0  0  0  0  0  0
  -17.1160  -32.6200   55.7770 C   0  0  0  0  0  0  0  0  0  0  0  0
  -17.6170  -34.0100   55.5170 N   0  0  0  0  0  0  0  0  0  0  0  0
  -18.8800  -33.9050   54.7140 C   0  0  0  0  0  0  0  0  0  0  0  0
  -19.1580  -32.4500   54.4780 N   0  0  0  0  0  0  0  0  0  0  0  0
  -19.4550  -34.6940   54.3830 H   0  0  0  0  0  0  0  0  0  0  0  0
  -20.3220  -31.8870   53.7180 C   0  0  0  0  0  2  0  0  0  0  0  0
  -20.1070  -30.7860   52.7220 C   0  0  0  0  0  2  0  0  0  0  0  0
  -21.2720  -30.2240   51.9630 C   0  0  0  0  0  2  0  0  0  0  0  0
  -22.6520  -30.7630   52.1990 N   0  0  0  0  0  2  0  0  0  0  0  0
  -22.8670  -31.8640   53.1930 C   0  0  0  0  0  3  0  0  0  0  0  0
  -21.7030  -32.4260   53.9530 C   0  0  0  0  0  2  0  0  0  0  0  0
  -21.1530  -31.4860   53.1760 H   0  0  0  0  0  0  0  0  0  0  0  0
  -19.1230  -30.4010   52.5550 H   0  0  0  0  0  0  0  0  0  0  0  0
  -19.9530  -30.0000   52.0130 H   0  0  0  0  0  0  0  0  0  0  0  0
  -21.1180  -29.4370   51.2530 H   0  0  0  0  0  0  0  0  0  0  0  0
  -22.1030  -29.8220   51.4210 H   0  0  0  0  0  0  0  0  0  0  0  0
  -23.4430  -30.3800   51.6820 H   0  0  0  0  0  0  0  0  0  0  0  0
  -23.8510  -32.2480   53.3620 H   0  0  0  0  0  0  0  0  0  0  0  0
  -23.0210  -32.6500   53.9030 H   0  0  0  0  0  0  0  0  0  0  0  0
  -21.8560  -33.2120   54.6630 H   0  0  0  0  0  0  0  0  0  0  0  0
  -20.8720  -32.8280   54.4950 H   0  0  0  0  0  0  0  0  0  0  0  0
  -15.8790  -32.2590   56.5450 C   0  0  0  0  0  0  0  0  0  0  0  0
  -14.5680  -32.1140   55.8310 C   0  0  0  0  0  0  0  0  0  0  0  0
  -13.3310  -31.7520   56.5990 C   0  0  0  0  0  0  0  0  0  0  0  0
  -13.4050  -31.5350   58.0810 C   0  0  0  0  0  0  0  0  0  0  0  0
  -12.1690  -31.1740   58.8490 F   0  0  0  0  0  0  0  0  0  0  0  0
  -14.7170  -31.6800   58.7960 C   0  0  0  0  0  0  0  0  0  0  0  0
  -15.9530  -32.0420   58.0270 C   0  0  0  0  0  0  0  0  0  0  0  0
  -14.5170  -32.2630   54.8110 H   0  0  0  0  0  0  0  0  0  0  0  0
  -12.4290  -31.6530   56.1080 H   0  0  0  0  0  0  0  0  0  0  0  0
  -14.7680  -31.5310   59.8160 H   0  0  0  0  0  0  0  0  0  0  0  0
  -16.8550  -32.1410   58.5190 H   0  0  0  0  0  0  0  0  0  0  0  0
  -18.9090  -27.8340   55.7940 C   0  0  0  0  0  0  0  0  0  0  0  0
  -17.7170  -27.1700   55.1720 N   0  0  0  0  0  0  0  0  0  0  0  0
  -16.6410  -28.0020   54.5380 C   0  0  0  0  0  3  0  0  0  0  0  0
  -16.7580  -29.4970   54.5250 C   0  0  0  0  0  0  0  0  0  0  0  0
  -17.9510  -30.1610   55.1470 C   0  0  0  0  0  0  0  0  0  0  0  0
  -19.0270  -29.3300   55.7810 N   0  0  0  0  0  0  0  0  0  0  0  0
  -15.8210  -27.5450   54.1100 H   0  0  0  0  0  0  0  0  0  0  0  0
  -16.0180  -30.0690   54.0890 H   0  0  0  0  0  0  0  0  0  0  0  0
  -19.9850  -27.0030   56.4280 O   0  0  0  0  0  0  0  0  0  0  0  0
  -23.8040  -26.2030   55.7030 C   0  0  0  0  0  0  0  0  0  0  0  0
  -24.2710  -27.5200   55.1590 C   0  0  0  0  0  0  0  0  0  0  0  0
  -23.3100  -28.6650   55.0370 C   0  0  0  0  0  0  0  0  0  0  0  0
  -21.8810  -28.4930   55.4600 C   0  0  0  0  0  0  0  0  0  0  0  0
  -21.4140  -27.1750   56.0050 C   0  0  0  0  0  0  0  0  0  0  0  0
  -22.3750  -26.0310   56.1260 C   0  0  0  0  0  0  0  0  0  0  0  0
  -25.2540  -27.6390   54.8680 H   0  0  0  0  0  0  0  0  0  0  0  0
  -23.6310  -29.5720   54.6630 H   0  0  0  0  0  0  0  0  0  0  0  0
  -21.2190  -29.2800   55.3770 H   0  0  0  0  0  0  0  0  0  0  0  0
  -24.7660  -25.0580   55.8250 C   0  0  0  0  0  0  0  0  0  0  0  0
  -25.7850  -25.1820   55.5230 H   0  0  0  0  0  0  0  0  0  0  0  0
  -24.4320  -24.1190   56.2130 H   0  0  0  0  0  0  0  0  0  0  0  0
  -25.4520  -24.2420   55.9120 H   0  0  0  0  0  0  0  0  0  0  0  0
  -21.9080  -24.7130   56.6710 C   0  0  0  0  0  0  0  0  0  0  0  0
  -22.5940  -23.8970   56.7580 H   0  0  0  0  0  0  0  0  0  0  0  0
  -20.8890  -24.5900   56.9730 H   0  0  0  0  0  0  0  0  0  0  0  0
  -21.5750  -23.7740   57.0590 H   0  0  0  0  0  0  0  0  0  0  0  0
  1 38  1  0
  1  2  2  0
  2 23  1  0
  3  2  1  0
  4  3  2  0
  5  4  1  0
  5  1  1  0
  6  4  1  0
  7  5  1  0
 10 11  1  0
 11 19  1  0
 11 20  1  0
 12 22  1  0
 12 21  1  0
 13  7  1  0
 14  8  1  0
 15  8  1  0
 16  9  1  0
 17  9  1  0
 18 10  1  0
 23 29  1  0
 24 23  2  0
 24 25  1  0
 25 26  2  0
 26 28  1  0
 26 27  1  0
 28 32  1  0
 29 33  1  0
 29 28  2  0
 30 24  1  0
 31 25  1  0
 34 42  1  0
 35 34  2  0
 36 35  1  0
 37 36  1  0
 37 38  2  0
 38 39  1  0
 39 34  2  0
 40 36  1  0
 41 37  1  0
 43 52  1  0
 43 48  1  0
 44 43  2  0
 45 44  1  0
 45 46  2  0
 46 47  1  0
 47 48  2  0
 47 42  1  0
 48 56  1  0
 49 44  1  0
 50 45  1  0
 51 46  1  0
 52 55  1  0
 52 54  1  0
 53 52  1  0
 56 57  1  0
 56 58  1  0
 56 59  1  0
M  END
>  <minimizedAffinity>  (331) 
-9.12909222

$$$$

     RDKit          3D

 50 54  0  0  0  0  0  0  0  0999 V2000
  -22.7270  -25.9020   55.7140 C   0  0  0  0  0  0  0  0  0  0  0  0
  -21.3730  -25.7890   56.3500 C   0  0  0  0  0  0  0  0  0  0  0  0
  -20.3600  -26.8780   56.1540 C   0  0  0  0  0  0  0  0  0  0  0  0
  -20.7000  -28.0790   55.3220 C   0  0  0  0  0  0  0  0  0  0  0  0
  -19.9120  -29.3010   54.9550 C   0  0  0  0  0  0  0  0  0  0  0  0
  -20.7790  -30.1690   54.0920 C   0  0  0  0  0  0  0  0  0  0  0  0
  -22.1020  -29.4840   53.9260 N   0  0  0  0  0  0  0  0  0  0  0  0
  -22.0540  -28.1920   54.6860 N   0  0  0  0  0  0  0  0  0  0  0  0
  -23.0670  -27.1030   54.8820 N   0  0  0  0  0  0  0  0  0  0  0  0
  -21.1390  -24.9630   56.9220 H   0  0  0  0  0  0  0  0  0  0  0  0
  -19.4280  -26.8000   56.5920 H   0  0  0  0  0  0  0  0  0  0  0  0
  -20.3900  -31.4910   53.4980 C   0  0  0  0  0  0  0  0  0  0  0  0
  -19.2240  -31.5780   52.5590 C   0  0  0  0  0  0  0  0  0  0  0  0
  -18.8350  -32.8990   51.9660 C   0  0  0  0  0  0  0  0  0  0  0  0
  -19.6120  -34.1340   52.3120 C   0  0  0  0  0  0  0  0  0  0  0  0
  -20.7780  -34.0480   53.2520 C   0  0  0  0  0  0  0  0  0  0  0  0
  -21.1670  -32.7260   53.8450 C   0  0  0  0  0  0  0  0  0  0  0  0
  -18.6890  -30.7270   52.3210 H   0  0  0  0  0  0  0  0  0  0  0  0
  -18.0320  -32.9590   51.3200 H   0  0  0  0  0  0  0  0  0  0  0  0
  -19.3450  -35.0440   51.9040 H   0  0  0  0  0  0  0  0  0  0  0  0
  -21.3130  -34.8980   53.4900 H   0  0  0  0  0  0  0  0  0  0  0  0
  -21.9690  -32.6670   54.4910 H   0  0  0  0  0  0  0  0  0  0  0  0
  -18.5040  -29.6020   55.3770 C   0  0  0  0  0  0  0  0  0  0  0  0
  -17.3810  -28.7170   54.9240 C   0  0  0  0  0  0  0  0  0  0  0  0
  -15.9730  -29.0180   55.3460 C   0  0  0  0  0  0  0  0  0  0  0  0
  -15.6890  -30.2040   56.2200 N   0  0  0  0  0  0  0  0  0  0  0  0
  -16.8120  -31.0890   56.6720 C   0  0  0  0  0  0  0  0  0  0  0  0
  -16.5280  -32.2740   57.5460 N   0  0  0  0  0  0  0  0  0  0  0  0
  -18.2200  -30.7880   56.2500 N   0  0  0  0  0  0  0  0  0  0  0  0
  -17.5760  -27.9010   54.3230 H   0  0  0  0  0  0  0  0  0  0  0  0
  -15.1990  -28.4090   55.0350 H   0  0  0  0  0  0  0  0  0  0  0  0
  -17.2660  -32.8550   57.8420 H   0  0  0  0  0  0  0  0  0  0  0  0
  -15.1200  -32.5750   57.9670 C   0  0  0  0  0  0  0  0  0  0  0  0
  -14.4560  -33.8410   57.5130 C   0  0  0  0  0  0  0  0  0  0  0  0
  -13.0480  -34.1420   57.9350 C   0  0  0  0  0  0  0  0  0  0  0  0
  -12.3050  -33.1770   58.8100 C   0  0  0  0  0  0  0  0  0  0  0  0
  -12.9700  -31.9110   59.2640 C   0  0  0  0  0  0  0  0  0  0  0  0
  -14.3770  -31.6100   58.8430 C   0  0  0  0  0  0  0  0  0  0  0  0
  -14.9670  -34.5050   56.9110 H   0  0  0  0  0  0  0  0  0  0  0  0
  -12.5920  -35.0130   57.6230 H   0  0  0  0  0  0  0  0  0  0  0  0
  -11.3360  -33.3840   59.1000 H   0  0  0  0  0  0  0  0  0  0  0  0
  -14.8340  -30.7390   59.1550 H   0  0  0  0  0  0  0  0  0  0  0  0
  -12.2260  -30.9470   60.1400 C   0  0  0  0  0  0  0  0  0  0  0  0
  -11.4830  -29.9820   61.0150 F   0  0  0  0  0  0  0  0  0  0  0  0
  -10.9350  -31.3560   59.4960 F   0  0  0  0  0  0  0  0  0  0  0  0
  -13.5180  -30.5370   60.7840 F   0  0  0  0  0  0  0  0  0  0  0  0
  -23.7410  -24.8140   55.9090 C   0  0  0  0  0  0  0  0  0  0  0  0
  -23.4980  -23.9570   56.5030 H   0  0  0  0  0  0  0  0  0  0  0  0
  -24.7070  -24.8950   55.4560 H   0  0  0  0  0  0  0  0  0  0  0  0
  -24.4640  -24.0380   56.0490 H   0  0  0  0  0  0  0  0  0  0  0  0
  1 47  1  0
  1  2  1  0
  2 10  1  0
  3  2  2  0
  3 11  1  0
  4  3  1  0
  5  4  2  0
  5 23  1  0
  6  5  1  0
  7  6  2  0
  7  8  1  0
  8  9  1  0
  8  4  1  0
  9  1  2  0
 12 17  1  0
 12  6  1  0
 13 12  2  0
 14 15  2  0
 14 13  1  0
 15 16  1  0
 16 21  1  0
 16 17  2  0
 17 22  1  0
 18 13  1  0
 19 14  1  0
 20 15  1  0
 23 29  2  0
 24 25  2  0
 24 23  1  0
 25 26  1  0
 26 27  2  0
 27 28  1  0
 28 32  1  0
 28 33  1  0
 29 27  1  0
 30 24  1  0
 31 25  1  0
 33 38  1  0
 34 35  1  0
 34 33  2  0
 35 36  2  0
 36 41  1  0
 36 37  1  0
 37 43  1  0
 38 42  1  0
 38 37  2  0
 39 34  1  0
 40 35  1  0
 43 46  1  0
 43 44  1  0
 45 43  1  0
 47 50  1  0
 47 48  1  0
 49 47  1  0
M  END
>  <minimizedAffinity>  (332) 
-9.50620079

$$$$

     RDKit          3D

 46 40  0  0  0  0  0  0  0  0999 V2000
  -19.0010  -28.6680   54.8040 C   0  0  0  0  0  0  0  0  0  0  0  0
  -17.5810  -29.1440   54.8950 C   0  0  0  0  0  0  0  0  0  0  0  0
  -16.8160  -28.1650   55.7350 N   0  0  0  0  0  2  0  0  0  0  0  0
  -17.7630  -27.0830   56.1630 C   0  0  0  0  0  2  0  0  0  0  0  0
  -19.1140  -27.3950   55.5880 N   0  0  0  0  0  1  0  0  0  0  0  0
  -17.5280  -26.2690   56.7510 H   0  0  0  0  0  0  0  0  0  0  0  0
  -20.3580  -26.5760   55.7650 C   0  0  0  0  0  1  0  0  0  0  0  0
  -20.2560  -25.1330   56.1630 C   0  0  0  0  0  2  0  0  0  0  0  0
  -21.4990  -24.3140   56.3400 C   0  0  0  0  0  2  0  0  0  0  0  0
  -22.8460  -24.9370   56.1210 C   0  0  0  0  0  1  0  0  0  0  0  0
  -22.9480  -26.3810   55.7230 C   0  0  0  0  0  2  0  0  0  0  0  0
  -21.7050  -27.2000   55.5460 C   0  0  0  0  0  2  0  0  0  0  0  0
  -19.3980  -26.1310   55.9220 H   0  0  0  0  0  0  0  0  0  0  0  0
  -19.2950  -24.6880   56.3190 H   0  0  0  0  0  0  0  0  0  0  0  0
  -20.1820  -24.1040   56.4460 H   0  0  0  0  0  0  0  0  0  0  0  0
  -21.4260  -23.2850   56.6240 H   0  0  0  0  0  0  0  0  0  0  0  0
  -22.3870  -23.7300   56.4670 H   0  0  0  0  0  0  0  0  0  0  0  0
  -22.7730  -23.9080   56.4040 H   0  0  0  0  0  0  0  0  0  0  0  0
  -23.9090  -26.8250   55.5670 H   0  0  0  0  0  0  0  0  0  0  0  0
  -23.0210  -27.4100   55.4400 H   0  0  0  0  0  0  0  0  0  0  0  0
  -21.7770  -28.2290   55.2620 H   0  0  0  0  0  0  0  0  0  0  0  0
  -20.8170  -27.7840   55.4190 H   0  0  0  0  0  0  0  0  0  0  0  0
  -24.0900  -24.1190   56.2980 O   0  0  0  0  0  1  0  0  0  0  0  0
  -24.0240  -23.1860   56.5550 H   0  0  0  0  0  0  0  0  0  0  0  0
  -22.3590  -32.6060   54.3410 N   0  0  0  0  0  0  0  0  0  0  0  0
  -21.7920  -31.3160   53.8280 C   0  0  0  0  0  0  0  0  0  0  0  0
  -22.3360  -30.7040   52.5710 N   0  0  0  0  0  0  0  0  0  0  0  0
  -21.7680  -29.4140   52.0590 C   0  0  0  0  0  0  0  0  0  0  0  0
  -20.6570  -28.7350   52.8030 C   0  0  0  0  0  0  0  0  0  0  0  0
  -20.1120  -29.3470   54.0600 C   0  0  0  0  0  0  0  0  0  0  0  0
  -20.6800  -30.6370   54.5720 N   0  0  0  0  0  0  0  0  0  0  0  0
  -23.0890  -33.0510   53.8520 H   0  0  0  0  0  0  0  0  0  0  0  0
  -22.0020  -33.0080   55.1660 H   0  0  0  0  0  0  0  0  0  0  0  0
  -22.1430  -28.9930   51.1940 H   0  0  0  0  0  0  0  0  0  0  0  0
  -20.2660  -27.8470   52.4500 H   0  0  0  0  0  0  0  0  0  0  0  0
  -17.0250  -30.3820   54.2570 C   0  0  0  0  0  0  0  0  0  0  0  0
  -17.3300  -30.6880   52.8200 C   0  0  0  0  0  0  0  0  0  0  0  0
  -16.7740  -31.9260   52.1820 C   0  0  0  0  0  0  0  0  0  0  0  0
  -15.9120  -32.8590   52.9800 C   0  0  0  0  0  0  0  0  0  0  0  0
  -15.3560  -34.0970   52.3410 F   0  0  0  0  0  0  0  0  0  0  0  0
  -15.6070  -32.5540   54.4160 C   0  0  0  0  0  0  0  0  0  0  0  0
  -16.1630  -31.3150   55.0550 C   0  0  0  0  0  0  0  0  0  0  0  0
  -17.9230  -30.0460   52.2710 H   0  0  0  0  0  0  0  0  0  0  0  0
  -16.9840  -32.1360   51.1930 H   0  0  0  0  0  0  0  0  0  0  0  0
  -15.0140  -33.1960   54.9660 H   0  0  0  0  0  0  0  0  0  0  0  0
  -15.9530  -31.1060   56.0430 H   0  0  0  0  0  0  0  0  0  0  0  0
  1  2  2  0
  1  5  1  0
  2  3  1  0
  3  4  1  0
  4  6  1  0
  7 13  1  0
  8 14  1  0
  8 15  1  0
  9 17  1  0
  9 16  1  0
 10 18  1  0
 19 11  1  0
 20 11  1  0
 21 12  1  0
 22 12  1  0
 23 24  1  0
 25 33  1  0
 26 25  1  0
 26 31  1  0
 27 26  2  0
 28 27  1  0
 28 29  2  0
 29 30  1  0
 30 31  2  0
 30  1  1  0
 32 25  1  0
 34 28  1  0
 35 29  1  0
 36  2  1  0
 36 42  1  0
 37 36  2  0
 38 37  1  0
 38 39  2  0
 39 41  1  0
 40 39  1  0
 41 45  1  0
 41 42  2  0
 42 46  1  0
 43 37  1  0
 44 38  1  0
M  END
>  <minimizedAffinity>  (333) 
-8.63028908

$$$$

     RDKit          3D

 47 43  0  0  0  0  0  0  0  0999 V2000
  -17.7180  -29.0170   55.4510 C   0  0  0  0  0  0  0  0  0  0  0  0
  -19.0190  -29.6470   55.8520 C   0  0  0  0  0  0  0  0  0  0  0  0
  -20.2420  -28.7970   56.0260 C   0  0  0  0  0  0  0  0  0  0  0  0
  -20.1650  -27.3160   55.7980 C   0  0  0  0  0  0  0  0  0  0  0  0
  -18.8640  -26.6860   55.3960 C   0  0  0  0  0  0  0  0  0  0  0  0
  -17.6410  -27.5370   55.2230 C   0  0  0  0  0  0  0  0  0  0  0  0
  -19.0720  -30.6660   56.0090 H   0  0  0  0  0  0  0  0  0  0  0  0
  -21.1370  -29.2300   56.3020 H   0  0  0  0  0  0  0  0  0  0  0  0
  -18.8110  -25.6670   55.2400 H   0  0  0  0  0  0  0  0  0  0  0  0
  -16.7460  -27.1030   54.9460 H   0  0  0  0  0  0  0  0  0  0  0  0
  -21.3880  -26.4650   55.9720 C   0  0  0  0  0  0  0  0  0  0  0  0
  -21.2550  -25.0460   56.4390 C   0  0  0  0  0  0  0  0  0  0  0  0
  -22.4780  -24.1960   56.6130 C   0  0  0  0  0  0  0  0  0  0  0  0
  -23.8350  -24.7640   56.3190 C   0  0  0  0  0  0  0  0  0  0  0  0
  -23.9680  -26.1830   55.8520 C   0  0  0  0  0  0  0  0  0  0  0  0
  -22.7450  -27.0340   55.6780 C   0  0  0  0  0  0  0  0  0  0  0  0
  -20.3210  -24.6550   56.6410 H   0  0  0  0  0  0  0  0  0  0  0  0
  -22.3860  -23.2190   56.9350 H   0  0  0  0  0  0  0  0  0  0  0  0
  -24.6760  -24.1790   56.4390 H   0  0  0  0  0  0  0  0  0  0  0  0
  -22.8360  -28.0100   55.3560 H   0  0  0  0  0  0  0  0  0  0  0  0
  -25.3250  -26.7520   55.5580 C   0  0  0  0  0  0  0  0  0  0  0  0
  -25.4500  -28.1080   54.9280 O   0  0  0  0  0  0  0  0  0  0  0  0
  -26.5570  -25.9650   55.8940 N   0  0  0  0  0  0  0  0  0  0  0  0
  -26.4750  -25.0750   56.3080 H   0  0  0  0  0  0  0  0  0  0  0  0
  -27.9130  -26.5330   55.6010 C   0  0  0  0  0  1  0  0  0  0  0  0
  -28.9020  -27.0970   54.6230 C   0  0  0  0  0  2  0  0  0  0  0  0
  -29.2750  -26.9540   56.0690 C   0  0  0  0  0  3  0  0  0  0  0  0
  -28.8810  -26.9390   55.3910 H   0  0  0  0  0  0  0  0  0  0  0  0
  -29.1550  -27.3880   53.6260 H   0  0  0  0  0  0  0  0  0  0  0  0
  -29.9060  -27.4620   54.6880 H   0  0  0  0  0  0  0  0  0  0  0  0
  -29.9890  -27.0690   56.8580 H   0  0  0  0  0  0  0  0  0  0  0  0
  -28.7780  -26.5950   56.9470 H   0  0  0  0  0  0  0  0  0  0  0  0
  -16.3570  -30.7450   54.0680 O   0  0  0  0  0  0  0  0  0  0  0  0
  -16.4950  -29.8680   55.2770 C   0  0  0  0  0  0  0  0  0  0  0  0
  -15.4100  -29.8410   56.3120 N   0  0  0  0  0  4  0  0  0  0  0  0
  -15.5000  -29.2650   57.1050 H   0  0  0  0  0  0  0  0  0  0  0  0
  -14.1870  -30.6910   56.1380 C   0  0  0  0  0  0  0  0  0  0  0  0
  -13.8070  -30.8890   55.1570 H   0  0  0  0  0  0  0  0  0  0  0  0
  -13.3140  -31.2980   56.0140 H   0  0  0  0  0  0  0  0  0  0  0  0
  -13.4950  -31.2650   57.3390 C   0  0  0  0  0 15  0  0  0  0  0  0
  -12.2820  -31.8840   57.9680 C   0  0  0  0  0  3  0  0  0  0  0  0
  -13.5110  -31.6400   58.7920 C   0  0  0  0  0  2  0  0  0  0  0  0
  -13.0020  -31.6740   58.1960 H   0  0  0  0  0  0  0  0  0  0  0  0
  -11.2760  -32.2400   57.8870 H   0  0  0  0  0  0  0  0  0  0  0  0
  -12.0320  -32.2340   58.9480 H   0  0  0  0  0  0  0  0  0  0  0  0
  -14.0240  -31.6940   59.7290 H   0  0  0  0  0  0  0  0  0  0  0  0
  -14.4800  -31.2280   58.6020 H   0  0  0  0  0  0  0  0  0  0  0  0
  1  2  1  0
  2  7  1  0
  2  3  2  0
  3  8  1  0
  4 11  1  0
  4  3  1  0
  5  4  2  0
  6  5  1  0
  6  1  2  0
  9  5  1  0
 10  6  1  0
 11 12  1  0
 12 13  2  0
 12 17  1  0
 13 18  1  0
 14 19  1  0
 14 13  1  0
 15 14  2  0
 16 15  1  0
 16 11  2  0
 20 16  1  0
 21 15  1  0
 21 23  1  0
 22 21  2  0
 23 24  1  0
 25 23  1  0
 26 30  1  0
 27 31  1  0
 27 32  1  0
 28 27  1  0
 29 26  1  0
 33 34  2  0
 34  1  1  0
 34 35  1  0
 35 36  1  0
 37 35  2  0
 38 37  1  0
 39 37  1  0
 41 43  1  0
 41 45  1  0
 42 46  1  0
 44 41  1  0
 47 42  1  0
M  END
>  <minimizedAffinity>  (334) 
-10.1567392

$$$$

     RDKit          3D

 53 56  0  0  0  0  0  0  0  0999 V2000
  -18.0060  -27.6130   55.3700 C   0  0  0  0  0  0  0  0  0  0  0  0
  -17.0430  -28.7390   55.1360 S   0  0  0  0  0  0  0  0  0  0  0  0
  -17.7790  -30.0290   55.3450 C   0  0  0  0  0  0  0  0  0  0  0  0
  -19.1970  -29.7000   55.7080 C   0  0  0  0  0  0  0  0  0  0  0  0
  -19.3370  -28.2070   55.7230 C   0  0  0  0  0  0  0  0  0  0  0  0
  -19.9440  -30.3820   55.9110 H   0  0  0  0  0  0  0  0  0  0  0  0
  -17.1990  -31.4060   55.2140 N   0  0  0  0  0  0  0  0  0  0  0  0
  -17.4970  -32.3880   54.1190 C   0  0  0  0  0  0  0  0  0  0  0  0
  -16.7010  -33.6320   54.3830 N   0  0  0  0  0  0  0  0  0  0  0  0
  -15.9110  -33.4180   55.6390 C   0  0  0  0  0  0  0  0  0  0  0  0
  -14.9500  -34.2990   56.3820 C   0  0  0  0  0  0  0  0  0  0  0  0
  -14.2980  -33.8040   57.6390 C   0  0  0  0  0  0  0  0  0  0  0  0
  -14.6050  -32.4290   58.1520 C   0  0  0  0  0  0  0  0  0  0  0  0
  -15.5650  -31.5480   57.4090 C   0  0  0  0  0  0  0  0  0  0  0  0
  -16.2180  -32.0430   56.1530 C   0  0  0  0  0  0  0  0  0  0  0  0
  -18.1380  -32.2350   53.3250 H   0  0  0  0  0  0  0  0  0  0  0  0
  -14.7390  -35.2450   56.0290 H   0  0  0  0  0  0  0  0  0  0  0  0
  -15.7770  -30.6020   57.7630 H   0  0  0  0  0  0  0  0  0  0  0  0
  -13.3370  -34.6850   58.3820 O   0  0  0  0  0  0  0  0  0  0  0  0
  -12.3870  -35.5640   57.6250 C   0  0  0  0  0  0  0  0  0  0  0  0
  -12.3930  -35.5630   56.5550 H   0  0  0  0  0  0  0  0  0  0  0  0
  -11.7010  -36.1930   58.1550 H   0  0  0  0  0  0  0  0  0  0  0  0
  -11.7080  -36.1920   57.0850 H   0  0  0  0  0  0  0  0  0  0  0  0
  -13.9520  -31.9340   59.4090 O   0  0  0  0  0  0  0  0  0  0  0  0
  -12.5060  -31.5370   59.3970 C   0  0  0  0  0  0  0  0  0  0  0  0
  -11.9400  -31.6060   58.4920 H   0  0  0  0  0  0  0  0  0  0  0  0
  -12.0410  -31.1840   60.2930 H   0  0  0  0  0  0  0  0  0  0  0  0
  -11.4740  -31.2530   59.3880 H   0  0  0  0  0  0  0  0  0  0  0  0
  -17.6930  -26.1490   55.2680 C   0  0  0  0  0  0  0  0  0  0  0  0
  -18.7830  -25.1350   55.4420 O   0  0  0  0  0  0  0  0  0  0  0  0
  -16.2880  -25.7010   54.9910 O   0  0  0  0  0  0  0  0  0  0  0  0
  -15.3070  -25.5730   56.1180 C   0  0  0  0  0  0  0  0  0  0  0  0
  -14.3050  -25.2530   55.9210 H   0  0  0  0  0  0  0  0  0  0  0  0
  -15.6080  -25.8020   57.1180 H   0  0  0  0  0  0  0  0  0  0  0  0
  -14.6060  -25.4820   56.9210 H   0  0  0  0  0  0  0  0  0  0  0  0
  -20.5890  -27.4430   56.0370 O   0  0  0  0  0  0  0  0  0  0  0  0
  -21.5690  -27.1270   54.9460 C   0  0  0  0  0  0  0  0  0  0  0  0
  -21.2210  -26.7550   54.0050 H   0  0  0  0  0  0  0  0  0  0  0  0
  -22.2680  -26.9020   54.1680 H   0  0  0  0  0  0  0  0  0  0  0  0
  -23.0380  -27.3330   55.1740 C   0  0  0  0  0  0  0  0  0  0  0  0
  -23.6200  -28.7130   55.1110 C   0  0  0  0  0  0  0  0  0  0  0  0
  -25.0890  -28.9180   55.3390 C   0  0  0  0  0  0  0  0  0  0  0  0
  -25.9740  -27.7430   55.6300 C   0  0  0  0  0  0  0  0  0  0  0  0
  -25.3900  -26.3620   55.6940 C   0  0  0  0  0  0  0  0  0  0  0  0
  -23.9230  -26.1570   55.4660 C   0  0  0  0  0  0  0  0  0  0  0  0
  -23.0110  -29.5220   54.9100 H   0  0  0  0  0  0  0  0  0  0  0  0
  -25.4900  -29.8680   55.2960 H   0  0  0  0  0  0  0  0  0  0  0  0
  -26.9840  -27.8840   55.7880 H   0  0  0  0  0  0  0  0  0  0  0  0
  -26.0000  -25.5540   55.8940 H   0  0  0  0  0  0  0  0  0  0  0  0
  -23.3400  -24.7770   55.5290 C   0  0  0  0  0  0  0  0  0  0  0  0
  -22.7570  -23.3950   55.5920 F   0  0  0  0  0  0  0  0  0  0  0  0
  -23.7540  -24.5370   54.1070 F   0  0  0  0  0  0  0  0  0  0  0  0
  -22.9260  -25.0160   56.9500 F   0  0  0  0  0  0  0  0  0  0  0  0
  1  5  2  0
  2  3  1  0
  2  1  1  0
  3  4  2  0
  4  5  1  0
  4  6  1  0
  5 36  1  0
  7  3  1  0
  7 15  1  0
  8  9  2  0
  8  7  1  0
  9 10  1  0
 10 15  2  0
 10 11  1  0
 11 12  2  0
 12 13  1  0
 12 19  1  0
 13 24  1  0
 14 18  1  0
 14 13  2  0
 15 14  1  0
 16  8  1  0
 17 11  1  0
 20 22  1  0
 20 19  1  0
 21 20  1  0
 23 20  1  0
 25 24  1  0
 25 27  1  0
 26 25  1  0
 28 25  1  0
 29  1  1  0
 29 30  2  0
 31 29  1  0
 31 32  1  0
 32 35  1  0
 32 34  1  0
 33 32  1  0
 37 40  1  0
 37 36  1  0
 38 37  1  0
 39 37  1  0
 40 45  1  0
 41 40  2  0
 41 42  1  0
 42 43  2  0
 43 44  1  0
 43 48  1  0
 44 49  1  0
 45 50  1  0
 45 44  2  0
 46 41  1  0
 47 42  1  0
 50 51  1  0
 50 53  1  0
 52 50  1  0
M  END
>  <minimizedAffinity>  (335) 
-9.26281357

$$$$

     RDKit          3D

 80 77  0  0  1  0  0  0  0  0999 V2000
  -17.0660  -33.7580   52.6250 N   0  0  0  0  0  0  0  0  0  0  0  0
  -15.5960  -33.7800   52.9230 C   0  0  0  0  0  0  0  0  0  0  0  0
  -14.9700  -32.6580   53.6950 N   0  0  0  0  0  0  0  0  0  0  0  0
  -13.5000  -32.6790   53.9920 C   0  0  0  0  0  3  0  0  0  0  0  0
  -12.6560  -33.8240   53.5160 C   0  0  0  0  0  0  0  0  0  0  0  0
  -11.1910  -34.1180   53.6570 C   0  0  0  0  0  0  0  0  0  0  0  0
  -10.9120  -35.4230   52.9710 C   0  0  0  0  0  0  0  0  0  0  0  0
  -12.2040  -35.9350   52.4070 N   0  0  0  0  0  0  0  0  0  0  0  0
  -13.2810  -34.9470   52.7440 C   0  0  0  0  0  0  0  0  0  0  0  0
  -14.7520  -34.9250   52.4470 N   0  0  0  0  0  2  0  0  0  0  0  0
  -17.4760  -34.4950   52.1180 H   0  0  0  0  0  0  0  0  0  0  0  0
  -10.4970  -33.5270   54.1410 H   0  0  0  0  0  0  0  0  0  0  0  0
   -9.9930  -35.8870   52.9010 H   0  0  0  0  0  0  0  0  0  0  0  0
  -12.3240  -36.7740   51.9040 H   0  0  0  0  0  0  0  0  0  0  0  0
  -18.8160  -32.7890   54.2840 C   0  0  0  0  0  0  0  0  0  0  0  0
  -19.6600  -31.6440   54.7590 C   0  0  0  0  0  0  0  0  0  0  0  0
  -19.5980  -30.3230   54.0520 C   0  0  0  0  0  3  0  0  0  0  0  0
  -18.6920  -30.1460   52.8700 C   0  0  0  0  0  0  0  0  0  0  0  0
  -17.8480  -31.2910   52.3940 C   0  0  0  0  0  0  0  0  0  0  0  0
  -17.9100  -32.6130   53.1010 C   0  0  0  0  0  0  0  0  0  0  0  0
  -20.2830  -31.7660   55.5730 H   0  0  0  0  0  0  0  0  0  0  0  0
  -18.6500  -29.2370   52.3830 H   0  0  0  0  0  0  0  0  0  0  0  0
  -17.2250  -31.1700   51.5800 H   0  0  0  0  0  0  0  0  0  0  0  0
  -20.4420  -29.1770   54.5280 N   0  0  0  0  0  1  0  0  0  0  0  0
  -20.2720  -28.6490   55.9210 C   0  0  0  0  0  3  0  0  0  0  0  0
  -21.1160  -27.5040   56.3970 C   0  0  0  0  0  2  0  0  0  0  0  0
  -22.1300  -26.8870   55.4790 N   0  0  0  0  0  0  0  0  0  0  0  0
  -22.2990  -27.4160   54.0860 C   0  0  0  0  0  0  0  0  0  0  0  0
  -21.4560  -28.5610   53.6100 C   0  0  0  0  0  2  0  0  0  0  0  0
  -19.5490  -29.0890   56.5750 H   0  0  0  0  0  0  0  0  0  0  0  0
  -20.1510  -28.2710   56.9150 H   0  0  0  0  0  0  0  0  0  0  0  0
  -20.9950  -27.1260   57.3910 H   0  0  0  0  0  0  0  0  0  0  0  0
  -21.7180  -26.6870   56.7370 H   0  0  0  0  0  0  0  0  0  0  0  0
  -23.0230  -26.9760   53.4310 H   0  0  0  0  0  0  0  0  0  0  0  0
  -22.4210  -27.7930   53.0910 H   0  0  0  0  0  0  0  0  0  0  0  0
  -21.5770  -28.9380   52.6160 H   0  0  0  0  0  0  0  0  0  0  0  0
  -20.8540  -29.3770   53.2700 H   0  0  0  0  0  0  0  0  0  0  0  0
  -22.9740  -25.7420   55.9540 C   0  0  0  0  0  0  0  0  0  0  0  0
  -23.5770  -24.9250   56.2940 H   0  0  0  0  0  0  0  0  0  0  0  0
  -24.4630  -25.8970   56.0530 C   0  0  0  0  0  0  0  0  0  0  0  0
  -24.9230  -26.8250   55.7840 H   0  0  0  0  0  0  0  0  0  0  0  0
  -25.0640  -25.0810   56.3930 H   0  0  0  0  0  0  0  0  0  0  0  0
  -25.5240  -26.0090   56.1230 H   0  0  0  0  0  0  0  0  0  0  0  0
  -22.3300  -24.4420   56.3320 C   0  0  0  0  0  0  0  0  0  0  0  0
  -22.9320  -23.6240   56.6710 H   0  0  0  0  0  0  0  0  0  0  0  0
  -21.2680  -24.3310   56.2610 H   0  0  0  0  0  0  0  0  0  0  0  0
  -21.8690  -23.5130   56.6010 H   0  0  0  0  0  0  0  0  0  0  0  0
  -18.8770  -34.1110   54.9900 O   0  0  0  0  0  0  0  0  0  0  0  0
  -19.9800  -35.0780   54.6760 C   0  0  0  0  0  0  0  0  0  0  0  0
  -20.7220  -34.8260   53.9490 H   0  0  0  0  0  0  0  0  0  0  0  0
  -20.0240  -36.0210   55.1800 H   0  0  0  0  0  0  0  0  0  0  0  0
  -20.7670  -35.7680   54.4520 H   0  0  0  0  0  0  0  0  0  0  0  0
  -12.8730  -31.5560   54.7640 N   0  0  0  0  0  0  0  0  0  0  0  0
  -12.5270  -30.7660   54.2910 H   0  0  0  0  0  0  0  0  0  0  0  0
  -12.7740  -31.6380   56.2600 C   0  0  0  0  0  0  0  0  0  0  0  0
  -11.5480  -32.2190   56.8980 C   0  0  0  0  0  0  0  0  0  0  0  0
  -11.4490  -32.3020   58.3930 C   0  0  0  0  0  0  0  0  0  0  0  0
  -12.5750  -31.8030   59.2480 C   0  0  0  0  0  0  0  0  0  0  0  0
  -12.4760  -31.8850   60.7420 F   0  0  0  0  0  0  0  0  0  0  0  0
  -13.8010  -31.2220   58.6080 C   0  0  0  0  0  0  0  0  0  0  0  0
  -13.9000  -31.1400   57.1140 C   0  0  0  0  0  0  0  0  0  0  0  0
  -10.7720  -32.5630   56.3100 H   0  0  0  0  0  0  0  0  0  0  0  0
  -10.6050  -32.7010   58.8330 H   0  0  0  0  0  0  0  0  0  0  0  0
  -14.5770  -30.8780   59.1970 H   0  0  0  0  0  0  0  0  0  0  0  0
  -15.1270  -30.5590   56.4740 C   0  0  0  0  0  0  0  0  0  0  0  0
  -16.4030  -31.3460   56.4490 O   0  0  0  0  0  0  0  0  0  0  0  0
  -15.0760  -29.1910   55.8610 N   0  0  0  0  0  2  0  0  0  0  0  0
  -14.2380  -28.6750   55.8780 H   0  0  0  0  0  0  0  0  0  0  0  0
  -16.3030  -28.6100   55.2210 C   0  0  0  0  0  2  0  0  0  0  0  0
  -16.9120  -29.2170   54.5860 H   0  0  0  0  0  0  0  0  0  0  0  0
  -17.1770  -28.1950   54.7650 H   0  0  0  0  0  0  0  0  0  0  0  0
  -16.6730  -27.1780   55.4730 C   0  0  0  0  0  3  0  0  0  0  0  0
  -15.8390  -27.6130   55.9830 H   0  0  0  0  0  0  0  0  0  0  0  0
  -17.8430  -26.5690   54.7580 C   0  0  0  0  0  0  0  0  0  0  0  0
  -18.1800  -26.9870   53.8330 H   0  0  0  0  0  0  0  0  0  0  0  0
  -18.6770  -26.1360   54.2480 H   0  0  0  0  0  0  0  0  0  0  0  0
  -18.5390  -25.3750   55.3410 O   0  0  0  0  0  0  0  0  0  0  0  0
  -18.2320  -24.9970   56.1800 H   0  0  0  0  0  0  0  0  0  0  0  0
  -15.8730  -26.3560   56.4400 O   0  0  0  0  0  0  0  0  0  0  0  0
  -15.1170  -26.7500   56.9020 H   0  0  0  0  0  0  0  0  0  0  0  0
  1  2  1  0
  1 20  1  0
  2  3  2  0
  3  4  1  0
  4 53  1  0
  5  6  1  0
  5  4  1  0
  6 12  1  0
  7  6  2  0
  8  9  1  0
  8  7  1  0
  9  5  2  0
 10  9  1  0
 10  2  1  0
 11  1  1  0
 13  7  1  0
 14  8  1  0
 15 16  1  0
 15 48  1  0
 16 21  1  0
 17 16  2  0
 18 17  1  0
 19 18  2  0
 19 20  1  0
 20 15  2  0
 22 18  1  0
 23 19  1  0
 24 25  1  0
 25 30  1  0
 25 31  1  0
 26 33  1  0
 26 32  1  0
 27 38  1  0
 28 27  2  0
 34 28  1  0
 35 28  1  0
 36 29  1  0
 37 29  1  0
 38 40  1  0
 38 39  1  0
 38 44  1  0
 40 43  1  0
 40 42  1  0
 41 40  1  0
 44 47  1  0
 44 45  1  0
 46 44  1  0
 49 48  1  0
 49 51  1  0
 50 49  1  0
 52 49  1  0
 53 55  1  0
 54 53  1  0
 55 56  2  0
 55 61  1  0
 56 57  1  0
 57 63  1  0
 57 58  2  0
 58 59  1  0
 60 64  1  0
 60 58  1  0
 61 60  2  0
 62 56  1  0
 65 61  1  0
 66 65  2  0
 67 68  1  0
 67 65  1  0
 70 69  1  0
 71 69  1  0
 72 73  1  0
 72 79  1  0
 74 77  1  0
 74 72  1  0
 75 74  1  0
 76 74  1  0
 77 78  1  0
 79 80  1  0
M  END
>  <minimizedAffinity>  (336) 
-9.6392746

$$$$

     RDKit          3D

 28 28  0  0  0  0  0  0  0  0999 V2000
  -20.1770  -27.8240   55.6830 N   0  0  0  0  0  2  0  0  0  0  0  0
  -20.5200  -26.3790   55.8880 C   0  0  0  0  0  0  0  0  0  0  0  0
  -19.2390  -25.6000   55.9450 N   0  0  0  0  0  2  0  0  0  0  0  0
  -18.1030  -26.5660   55.7750 C   0  0  0  0  0  0  0  0  0  0  0  0
  -16.6160  -26.3710   55.7470 C   0  0  0  0  0  0  0  0  0  0  0  0
  -15.7090  -27.5500   55.5580 C   0  0  0  0  0  0  0  0  0  0  0  0
  -16.2880  -28.9240   55.3960 C   0  0  0  0  0  0  0  0  0  0  0  0
  -17.7750  -29.1190   55.4240 C   0  0  0  0  0  0  0  0  0  0  0  0
  -18.6830  -27.9400   55.6130 C   0  0  0  0  0  3  0  0  0  0  0  0
  -16.2170  -25.4260   55.8590 H   0  0  0  0  0  0  0  0  0  0  0  0
  -14.6850  -27.4170   55.5380 H   0  0  0  0  0  0  0  0  0  0  0  0
  -15.6640  -29.7360   55.2650 H   0  0  0  0  0  0  0  0  0  0  0  0
  -18.1740  -30.0650   55.3120 H   0  0  0  0  0  0  0  0  0  0  0  0
  -21.9030  -25.8100   56.0140 C   0  0  0  0  0  0  0  0  0  0  0  0
  -23.1860  -26.5800   55.9020 N   0  0  0  0  0  0  0  0  0  0  0  0
  -24.3210  -25.6170   56.0930 O   0  0  0  0  0  0  0  0  0  0  0  0
  -23.7400  -24.2540   56.3220 N   0  0  0  0  0  0  0  0  0  0  0  0
  -22.2450  -24.3720   56.2730 C   0  0  0  0  0  0  0  0  0  0  0  0
  -21.2650  -23.2510   56.4520 N   0  0  0  0  0  0  0  0  0  0  0  0
  -20.2980  -23.4300   56.4030 H   0  0  0  0  0  0  0  0  0  0  0  0
  -21.5880  -22.3370   56.6190 H   0  0  0  0  0  0  0  0  0  0  0  0
  -21.1550  -28.9550   55.5680 C   0  0  0  0  0  3  0  0  0  0  0  0
  -21.5150  -29.4440   56.4500 H   0  0  0  0  0  0  0  0  0  0  0  0
  -20.8160  -28.6370   56.5320 H   0  0  0  0  0  0  0  0  0  0  0  0
  -21.6300  -29.4020   54.2180 C   0  0  0  0  0  0  0  0  0  0  0  0
  -21.2700  -28.9140   53.3360 H   0  0  0  0  0  0  0  0  0  0  0  0
  -22.3270  -30.2090   54.1350 H   0  0  0  0  0  0  0  0  0  0  0  0
  -21.9680  -29.7210   53.2540 H   0  0  0  0  0  0  0  0  0  0  0  0
  1  2  2  0
  2  3  1  0
  2 14  1  0
  4  3  1  0
  5  4  1  0
  5 10  1  0
  6  5  2  0
  7  8  2  0
  7  6  1  0
  8  9  1  0
  9  4  2  0
 11  6  1  0
 12  7  1  0
 13  8  1  0
 14 18  1  0
 15 14  2  0
 15 16  1  0
 16 17  1  0
 18 17  2  0
 18 19  1  0
 19 21  1  0
 20 19  1  0
 22 23  1  0
 22 24  1  0
 25 22  1  0
 26 25  1  0
 27 25  1  0
 28 25  1  0
M  END
>  <minimizedAffinity>  (337) 
-7.40573788

$$$$

     RDKit          3D

 44 49  0  0  0  0  0  0  0  0999 V2000
  -16.3030  -27.8390   55.5070 C   0  0  0  0  0  0  0  0  0  0  0  0
  -16.2410  -29.2950   55.1540 C   0  0  0  0  0  0  0  0  0  0  0  0
  -17.5090  -30.0730   54.9560 C   0  0  0  0  0  0  0  0  0  0  0  0
  -18.8370  -29.3940   55.1120 C   0  0  0  0  0  0  0  0  0  0  0  0
  -20.2440  -29.8980   54.9800 N   0  0  0  0  0  0  0  0  0  0  0  0
  -21.1740  -28.7530   55.2520 C   0  0  0  0  0  0  0  0  0  0  0  0
  -22.6710  -28.6590   55.2650 C   0  0  0  0  0  0  0  0  0  0  0  0
  -23.7440  -29.6760   55.0110 N   0  0  0  0  0  0  0  0  0  0  0  0
  -25.0720  -28.9970   55.1670 C   0  0  0  0  0  0  0  0  0  0  0  0
  -26.4790  -29.5010   55.0350 C   0  0  0  0  0  0  0  0  0  0  0  0
  -27.6340  -28.5690   55.2530 C   0  0  0  0  0  0  0  0  0  0  0  0
  -27.3820  -27.1320   55.6040 C   0  0  0  0  0  0  0  0  0  0  0  0
  -25.9760  -26.6280   55.7360 C   0  0  0  0  0  0  0  0  0  0  0  0
  -24.8200  -27.5600   55.5180 C   0  0  0  0  0  0  0  0  0  0  0  0
  -23.3370  -27.3510   55.5780 C   0  0  0  0  0  0  0  0  0  0  0  0
  -22.5040  -26.1390   55.8790 C   0  0  0  0  0  0  0  0  0  0  0  0
  -21.0080  -26.2350   55.8650 C   0  0  0  0  0  0  0  0  0  0  0  0
  -20.3430  -27.5420   55.5520 C   0  0  0  0  0  0  0  0  0  0  0  0
  -18.8980  -27.9380   55.4660 C   0  0  0  0  0  0  0  0  0  0  0  0
  -17.6310  -27.1600   55.6630 C   0  0  0  0  0  0  0  0  0  0  0  0
  -20.4540  -24.8810   56.1980 C   0  0  0  0  0  0  0  0  0  0  0  0
  -19.0010  -24.5220   56.2950 O   0  0  0  0  0  0  0  0  0  0  0  0
  -21.6090  -23.9490   56.4170 N   0  0  0  0  0  0  0  0  0  0  0  0
  -22.8760  -24.7260   56.2190 C   0  0  0  0  0  0  0  0  0  0  0  0
  -24.2700  -24.1860   56.3410 O   0  0  0  0  0  0  0  0  0  0  0  0
  -15.3270  -29.7630   55.0470 H   0  0  0  0  0  0  0  0  0  0  0  0
  -17.4670  -31.0750   54.7130 H   0  0  0  0  0  0  0  0  0  0  0  0
  -20.5100  -30.8190   54.7550 H   0  0  0  0  0  0  0  0  0  0  0  0
  -23.6010  -30.6220   54.7820 H   0  0  0  0  0  0  0  0  0  0  0  0
  -26.6520  -30.4890   54.7930 H   0  0  0  0  0  0  0  0  0  0  0  0
  -28.6020  -28.9150   55.1630 H   0  0  0  0  0  0  0  0  0  0  0  0
  -25.8020  -25.6390   55.9780 H   0  0  0  0  0  0  0  0  0  0  0  0
  -17.6730  -26.1580   55.9070 H   0  0  0  0  0  0  0  0  0  0  0  0
  -21.5460  -22.9940   56.6490 H   0  0  0  0  0  0  0  0  0  0  0  0
  -15.0350  -27.0610   55.7050 O   0  0  0  0  0  0  0  0  0  0  0  0
  -15.0960  -25.6030   56.0520 C   0  0  0  0  0  0  0  0  0  0  0  0
  -16.0440  -25.1180   56.1590 H   0  0  0  0  0  0  0  0  0  0  0  0
  -14.1920  -25.0490   56.1930 H   0  0  0  0  0  0  0  0  0  0  0  0
  -15.1400  -24.5630   56.3000 H   0  0  0  0  0  0  0  0  0  0  0  0
  -28.5360  -26.2000   55.8230 O   0  0  0  0  0  0  0  0  0  0  0  0
  -29.8810  -26.7460   56.2010 C   0  0  0  0  0  0  0  0  0  0  0  0
  -30.0170  -27.8010   56.3160 H   0  0  0  0  0  0  0  0  0  0  0  0
  -30.7040  -26.0810   56.3580 H   0  0  0  0  0  0  0  0  0  0  0  0
  -30.8400  -27.1360   56.4710 H   0  0  0  0  0  0  0  0  0  0  0  0
  1 20  1  0
  1 35  1  0
  2  1  2  0
  3  4  2  0
  3  2  1  0
  4 19  1  0
  5  4  1  0
  5  6  1  0
  6  7  2  0
  6 18  1  0
  7 15  1  0
  8  9  1  0
  8  7  1  0
  9 14  1  0
 10  9  2  0
 10 11  1  0
 11 12  2  0
 12 13  1  0
 12 40  1  0
 13 32  1  0
 14 15  1  0
 14 13  2  0
 15 16  2  0
 16 24  1  0
 17 16  1  0
 17 21  1  0
 18 17  2  0
 19 18  1  0
 19 20  2  0
 20 33  1  0
 21 22  2  0
 21 23  1  0
 23 34  1  0
 24 25  2  0
 24 23  1  0
 26  2  1  0
 27  3  1  0
 28  5  1  0
 29  8  1  0
 30 10  1  0
 31 11  1  0
 35 36  1  0
 36 37  1  0
 36 38  1  0
 36 39  1  0
 40 41  1  0
 41 42  1  0
 41 43  1  0
 41 44  1  0
M  END
>  <minimizedAffinity>  (338) 
-9.62454605

$$$$

     RDKit          3D

 32 33  0  0  0  0  0  0  0  0999 V2000
  -23.8620  -25.8410   55.8210 C   0  0  0  0  0  0  0  0  0  0  0  0
  -23.8390  -24.3520   56.0050 C   0  0  0  0  0  0  0  0  0  0  0  0
  -22.5530  -23.6580   56.3400 N   0  0  0  0  0  0  0  0  0  0  0  0
  -21.2890  -24.4510   56.4910 C   0  0  0  0  0  0  0  0  0  0  0  0
  -21.3120  -25.9400   56.3070 C   0  0  0  0  0  0  0  0  0  0  0  0
  -22.5980  -26.6350   55.9720 C   0  0  0  0  0  0  0  0  0  0  0  0
  -24.7090  -23.8060   55.9000 H   0  0  0  0  0  0  0  0  0  0  0  0
  -20.4040  -23.9730   56.7220 H   0  0  0  0  0  0  0  0  0  0  0  0
  -22.6130  -27.6590   55.8450 H   0  0  0  0  0  0  0  0  0  0  0  0
  -26.4590  -25.8860   55.8140 N   0  0  0  0  0  0  0  0  0  0  0  0
  -25.1480  -26.5360   55.4850 C   0  0  0  0  0  0  0  0  0  0  0  0
  -25.1230  -27.8800   54.8200 O   0  0  0  0  0  0  0  0  0  0  0  0
  -26.4760  -25.0040   56.2510 H   0  0  0  0  0  0  0  0  0  0  0  0
  -27.7460  -26.5810   55.4790 C   0  0  0  0  0  0  0  0  0  0  0  0
  -28.6810  -26.1180   55.7140 H   0  0  0  0  0  0  0  0  0  0  0  0
  -27.7280  -27.5400   55.0050 H   0  0  0  0  0  0  0  0  0  0  0  0
  -28.6630  -27.0770   55.2400 H   0  0  0  0  0  0  0  0  0  0  0  0
  -20.0480  -26.7330   56.4590 C   0  0  0  0  0  0  0  0  0  0  0  0
  -19.3090  -27.2060   55.2420 C   0  0  0  0  0  0  0  0  0  0  0  0
  -19.6870  -26.9540   57.4000 H   0  0  0  0  0  0  0  0  0  0  0  0
  -19.6690  -26.9850   54.3010 H   0  0  0  0  0  0  0  0  0  0  0  0
  -18.0450  -27.9990   55.3940 C   0  0  0  0  0  0  0  0  0  0  0  0
  -16.7210  -27.2970   55.4590 C   0  0  0  0  0  0  0  0  0  0  0  0
  -16.6610  -25.8000   55.3740 Cl  0  0  0  0  0  0  0  0  0  0  0  0
  -15.4570  -28.0900   55.6110 C   0  0  0  0  0  0  0  0  0  0  0  0
  -15.5170  -29.5870   55.6970 C   0  0  0  0  0  0  0  0  0  0  0  0
  -16.8410  -30.2890   55.6310 C   0  0  0  0  0  0  0  0  0  0  0  0
  -18.1040  -29.4960   55.4790 C   0  0  0  0  0  0  0  0  0  0  0  0
  -19.4280  -30.1980   55.4130 Cl  0  0  0  0  0  0  0  0  0  0  0  0
  -14.5470  -27.6070   55.6560 H   0  0  0  0  0  0  0  0  0  0  0  0
  -14.6470  -30.1330   55.8010 H   0  0  0  0  0  0  0  0  0  0  0  0
  -16.8820  -31.3190   55.6900 H   0  0  0  0  0  0  0  0  0  0  0  0
  1  6  2  0
  1  2  1  0
  2  3  2  0
  3  4  1  0
  4  8  1  0
  5 18  1  0
  5  4  2  0
  6  5  1  0
  7  2  1  0
  9  6  1  0
 10 13  1  0
 11 10  1  0
 11  1  1  0
 12 11  2  0
 14 15  1  0
 14 10  1  0
 16 14  1  0
 17 14  1  0
 18 20  1  0
 19 22  1  0
 19 18  2  0
 21 19  1  0
 22 23  2  0
 22 28  1  0
 23 25  1  0
 24 23  1  0
 25 30  1  0
 25 26  2  0
 26 31  1  0
 27 32  1  0
 27 26  1  0
 28 27  2  0
 29 28  1  0
M  END
>  <minimizedAffinity>  (339) 
-7.94558239

$$$$

     RDKit          3D

 44 44  0  0  0  0  0  0  0  0999 V2000
  -22.1820  -27.3890   55.6810 C   0  0  0  0  0  0  0  0  0  0  0  0
  -21.7560  -28.8270   55.7230 C   0  0  0  0  0  0  0  0  0  0  0  0
  -20.2980  -29.1770   55.7270 C   0  0  0  0  0  0  0  0  0  0  0  0
  -19.2650  -28.0900   55.6890 C   0  0  0  0  0  0  0  0  0  0  0  0
  -17.7650  -28.1300   55.6840 C   0  0  0  0  0  0  0  0  0  0  0  0
  -16.9160  -29.3660   55.7180 N   0  0  0  0  0  0  0  0  0  0  0  0
  -15.4210  -29.2490   55.7080 C   0  0  0  0  0  0  0  0  0  0  0  0
  -14.7750  -27.8960   55.6640 O   0  0  0  0  0  0  0  0  0  0  0  0
  -17.2640  -26.7170   55.6390 N   0  0  0  0  0  0  0  0  0  0  0  0
  -18.4540  -25.8040   55.6160 N   0  0  0  0  0  0  0  0  0  0  0  0
  -19.6910  -26.6520   55.6470 C   0  0  0  0  0  0  0  0  0  0  0  0
  -21.1490  -26.3020   55.6430 C   0  0  0  0  0  0  0  0  0  0  0  0
  -22.4670  -29.5740   55.7480 H   0  0  0  0  0  0  0  0  0  0  0  0
  -20.0050  -30.1670   55.7560 H   0  0  0  0  0  0  0  0  0  0  0  0
  -17.3410  -30.2540   55.7470 H   0  0  0  0  0  0  0  0  0  0  0  0
  -18.4280  -24.8200   55.5860 H   0  0  0  0  0  0  0  0  0  0  0  0
  -21.4420  -25.3120   55.6140 H   0  0  0  0  0  0  0  0  0  0  0  0
  -26.5570  -26.3370   55.6680 C   0  0  0  0  0  0  0  0  0  0  0  0
  -26.1190  -27.7280   55.3170 C   0  0  0  0  0  0  0  0  0  0  0  0
  -24.6610  -28.0790   55.3210 C   0  0  0  0  0  0  0  0  0  0  0  0
  -23.6400  -27.0380   55.6760 C   0  0  0  0  0  0  0  0  0  0  0  0
  -24.0780  -25.6470   56.0270 C   0  0  0  0  0  0  0  0  0  0  0  0
  -25.5370  -25.2960   56.0230 C   0  0  0  0  0  0  0  0  0  0  0  0
  -26.8220  -28.4440   55.0730 H   0  0  0  0  0  0  0  0  0  0  0  0
  -24.3600  -29.0360   55.0800 H   0  0  0  0  0  0  0  0  0  0  0  0
  -23.3760  -24.9310   56.2710 H   0  0  0  0  0  0  0  0  0  0  0  0
  -25.8380  -24.3390   56.2640 H   0  0  0  0  0  0  0  0  0  0  0  0
  -28.0160  -25.9860   55.6640 N   0  0  0  0  0  0  0  0  0  0  0  0
  -28.2970  -25.0550   55.5140 H   0  0  0  0  0  0  0  0  0  0  0  0
  -29.0440  -27.0550   55.8870 S   0  0  1  0  0  0  0  0  0  0  0  0
  -29.3190  -27.0980   54.4130 O   0  0  0  0  0  0  0  0  0  0  0  0
  -28.7700  -27.0110   57.3610 O   0  0  0  0  0  0  0  0  0  0  0  0
  -30.0730  -28.1230   56.1100 C   0  0  0  0  0  0  0  0  0  0  0  0
  -30.6100  -28.5310   55.2790 H   0  0  0  0  0  0  0  0  0  0  0  0
  -30.2710  -28.4770   57.1010 H   0  0  0  0  0  0  0  0  0  0  0  0
  -30.8070  -28.8850   56.2700 H   0  0  0  0  0  0  0  0  0  0  0  0
  -14.5720  -30.4850   55.7420 C   0  0  0  0  0  1  0  0  0  0  0  0
  -14.4000  -31.9520   55.4760 C   0  0  0  0  0  2  0  0  0  0  0  0
  -13.2720  -31.1600   56.0660 C   0  0  0  0  0  3  0  0  0  0  0  0
  -13.9650  -31.3670   55.7660 H   0  0  0  0  0  0  0  0  0  0  0  0
  -14.7950  -32.8810   55.1230 H   0  0  0  0  0  0  0  0  0  0  0  0
  -13.6070  -32.6570   55.6080 H   0  0  0  0  0  0  0  0  0  0  0  0
  -12.2710  -31.1110   56.4430 H   0  0  0  0  0  0  0  0  0  0  0  0
  -13.1300  -30.1370   56.3470 H   0  0  0  0  0  0  0  0  0  0  0  0
  1  2  1  0
  2  3  2  0
  2 13  1  0
  3 14  1  0
  4  3  1  0
  5  4  1  0
  5  6  1  0
  6 15  1  0
  7  6  1  0
  7 37  1  0
  8  7  2  0
  9  5  2  0
 10  9  1  0
 10 11  1  0
 11  4  2  0
 12 11  1  0
 12  1  2  0
 16 10  1  0
 17 12  1  0
 18 23  1  0
 19 20  1  0
 19 18  2  0
 20 21  2  0
 21  1  1  0
 21 22  1  0
 22 26  1  0
 23 22  2  0
 23 27  1  0
 24 19  1  0
 25 20  1  0
 28 18  1  0
 28 30  1  0
 29 28  1  0
 30 33  1  0
 30 32  2  0
 31 30  2  0
 33 36  1  0
 33 35  1  0
 34 33  1  0
 38 42  1  0
 39 44  1  0
 39 43  1  0
 40 39  1  0
 41 38  1  0
M  END
>  <minimizedAffinity>  (340) 
-8.53930187

$$$$

     RDKit          3D

 66 65  0  0  0  0  0  0  0  0999 V2000
  -20.4700  -25.9040   56.0040 N   0  0  0  0  0  0  0  0  0  0  0  0
  -17.3420  -29.0010   55.0700 C   0  0  0  0  0  0  0  0  0  0  0  0
  -17.1210  -27.5700   54.6780 C   0  0  0  0  0  0  0  0  0  0  0  0
  -18.1640  -26.5380   54.9890 C   0  0  0  0  0  0  0  0  0  0  0  0
  -19.4270  -26.9360   55.6930 C   0  0  0  0  0  0  0  0  0  0  0  0
  -19.6480  -28.3670   56.0850 C   0  0  0  0  0  0  0  0  0  0  0  0
  -18.6060  -29.4000   55.7730 C   0  0  0  0  0  0  0  0  0  0  0  0
  -16.2520  -27.2960   54.1930 H   0  0  0  0  0  0  0  0  0  0  0  0
  -18.0120  -25.5530   54.7190 H   0  0  0  0  0  0  0  0  0  0  0  0
  -20.5180  -28.6420   56.5690 H   0  0  0  0  0  0  0  0  0  0  0  0
  -18.7580  -30.3840   56.0430 H   0  0  0  0  0  0  0  0  0  0  0  0
  -14.0600  -31.2160   55.3380 N   0  0  0  0  0  1  0  0  0  0  0  0
  -15.1030  -30.1840   55.6500 C   0  0  0  0  0  2  0  0  0  0  0  0
  -14.9480  -29.3010   56.8530 O   0  0  0  0  0  1  0  0  0  0  0  0
  -16.3000  -30.0340   54.7580 N   0  0  0  0  0  0  0  0  0  0  0  0
  -14.1620  -31.7950   54.5480 H   0  0  0  0  0  0  0  0  0  0  0  0
  -16.4010  -30.6130   53.9680 H   0  0  0  0  0  0  0  0  0  0  0  0
  -12.8630  -31.3660   56.2290 C   0  0  0  0  0  2  0  0  0  0  0  0
  -11.9610  -30.8350   56.0070 H   0  0  0  0  0  0  0  0  0  0  0  0
  -12.8150  -30.7280   55.3710 H   0  0  0  0  0  0  0  0  0  0  0  0
  -12.9310  -32.2600   57.4320 C   0  0  0  0  0  3  0  0  0  0  0  0
  -12.2340  -33.0650   57.5410 H   0  0  0  0  0  0  0  0  0  0  0  0
  -12.1850  -32.4270   56.6830 H   0  0  0  0  0  0  0  0  0  0  0  0
  -13.9760  -32.0260   58.4820 N   0  0  0  0  0  0  0  0  0  0  0  0
  -15.3360  -32.6420   58.3380 C   0  0  0  0  0  0  0  0  0  0  0  0
  -16.0810  -32.4750   59.0880 H   0  0  0  0  0  0  0  0  0  0  0  0
  -15.5610  -33.2490   57.4850 H   0  0  0  0  0  0  0  0  0  0  0  0
  -16.3060  -33.0810   58.2350 H   0  0  0  0  0  0  0  0  0  0  0  0
  -13.6610  -31.1760   59.6770 C   0  0  0  0  0  0  0  0  0  0  0  0
  -12.6910  -30.7360   59.7800 H   0  0  0  0  0  0  0  0  0  0  0  0
  -14.4060  -31.0080   60.4270 H   0  0  0  0  0  0  0  0  0  0  0  0
  -13.4360  -30.5690   60.5300 H   0  0  0  0  0  0  0  0  0  0  0  0
  -21.9250  -26.2390   55.8580 C   0  0  0  0  0  0  0  0  0  0  0  0
  -22.9650  -25.1820   56.0860 C   0  0  0  0  0  0  0  0  0  0  0  0
  -24.4190  -25.5180   55.9400 C   0  0  0  0  0  0  0  0  0  0  0  0
  -24.8340  -26.9090   55.5650 N   0  0  0  0  0  0  0  0  0  0  0  0
  -23.7940  -27.9660   55.3370 C   0  0  0  0  0  0  0  0  0  0  0  0
  -24.2090  -29.3580   54.9620 N   0  0  0  0  0  0  0  0  0  0  0  0
  -22.3400  -27.6310   55.4830 N   0  0  0  0  0  0  0  0  0  0  0  0
  -22.6790  -24.2250   56.3440 H   0  0  0  0  0  0  0  0  0  0  0  0
  -25.1350  -24.7910   56.0970 H   0  0  0  0  0  0  0  0  0  0  0  0
  -23.5270  -30.0510   54.8120 H   0  0  0  0  0  0  0  0  0  0  0  0
  -25.6640  -29.6930   54.8160 C   0  0  0  0  0  0  0  0  0  0  0  0
  -26.4780  -30.0450   56.0250 C   0  0  0  0  0  0  0  0  0  0  0  0
  -27.9330  -30.3800   55.8790 C   0  0  0  0  0  0  0  0  0  0  0  0
  -28.5730  -30.3640   54.5230 C   0  0  0  0  0  0  0  0  0  0  0  0
  -27.7590  -30.0120   53.3130 C   0  0  0  0  0  0  0  0  0  0  0  0
  -26.3040  -29.6770   53.4590 C   0  0  0  0  0  0  0  0  0  0  0  0
  -26.0370  -30.0560   56.9590 H   0  0  0  0  0  0  0  0  0  0  0  0
  -28.4930  -30.6210   56.7110 H   0  0  0  0  0  0  0  0  0  0  0  0
  -28.2000  -30.0010   52.3790 H   0  0  0  0  0  0  0  0  0  0  0  0
  -25.7440  -29.4350   52.6270 H   0  0  0  0  0  0  0  0  0  0  0  0
  -30.0280  -30.6990   54.3760 C   0  0  0  0  0  0  0  0  0  0  0  0
  -30.3800  -31.6760   54.6320 H   0  0  0  0  0  0  0  0  0  0  0  0
  -31.0660  -30.9380   54.2720 H   0  0  0  0  0  0  0  0  0  0  0  0
  -30.9890  -29.6640   53.8710 S   0  0  2  0  0  0  0  0  0  0  0  0
  -31.0050  -29.0180   55.2240 O   0  0  0  0  0  0  0  0  0  0  0  0
  -30.9730  -30.3100   52.5170 O   0  0  0  0  0  0  0  0  0  0  0  0
  -31.9500  -28.6290   53.3650 C   0  0  0  0  0  0  0  0  0  0  0  0
  -32.3020  -27.8610   54.0210 H   0  0  0  0  0  0  0  0  0  0  0  0
  -32.2830  -28.6590   52.3480 H   0  0  0  0  0  0  0  0  0  0  0  0
  -32.6350  -27.8900   53.0050 H   0  0  0  0  0  0  0  0  0  0  0  0
  -20.0580  -24.5360   56.4630 C   0  0  0  0  0  0  0  0  0  0  0  0
  -19.0200  -24.2970   56.5670 H   0  0  0  0  0  0  0  0  0  0  0  0
  -20.8020  -23.8000   56.6850 H   0  0  0  0  0  0  0  0  0  0  0  0
  -19.7640  -23.5610   56.7890 H   0  0  0  0  0  0  0  0  0  0  0  0
  1 63  1  0
  2  7  1  0
  3  4  1  0
  3  2  2  0
  4  5  2  0
  5  1  1  0
  5  6  1  0
  6 10  1  0
  7 11  1  0
  7  6  2  0
  8  3  1  0
  9  4  1  0
 13 14  1  0
 15  2  1  0
 15 13  1  0
 16 12  1  0
 17 15  1  0
 19 18  1  0
 20 18  1  0
 21 22  1  0
 21 24  1  0
 23 21  1  0
 24 29  1  0
 25 24  1  0
 25 26  1  0
 27 25  1  0
 28 25  1  0
 29 30  1  0
 29 31  1  0
 29 32  1  0
 33  1  1  0
 33 34  1  0
 34 40  1  0
 35 34  2  0
 35 41  1  0
 36 35  1  0
 37 39  1  0
 37 36  2  0
 38 37  1  0
 39 33  2  0
 42 38  1  0
 43 38  1  0
 43 44  1  0
 44 49  1  0
 45 44  2  0
 45 50  1  0
 46 45  1  0
 47 48  1  0
 47 46  2  0
 48 43  2  0
 51 47  1  0
 52 48  1  0
 53 46  1  0
 53 54  1  0
 55 53  1  0
 56 53  1  0
 56 57  2  0
 58 56  2  0
 59 56  1  0
 59 60  1  0
 61 59  1  0
 62 59  1  0
 63 64  1  0
 63 65  1  0
 63 66  1  0
M  END
>  <minimizedAffinity>  (341) 
-9.3518858

$$$$

     RDKit          3D

 44 42  0  0  0  0  0  0  0  0999 V2000
  -18.9310  -28.8050   54.7550 C   0  0  0  0  0  0  0  0  0  0  0  0
  -18.9810  -27.5370   55.5550 C   0  0  0  0  0  0  0  0  0  0  0  0
  -17.6060  -27.2720   56.0910 N   0  0  0  0  0  0  0  0  0  0  0  0
  -16.7060  -28.3760   55.6230 C   0  0  0  0  0  0  0  0  0  0  0  0
  -17.5250  -29.3240   54.7970 N   0  0  0  0  0  0  0  0  0  0  0  0
  -15.7000  -28.4690   55.8320 H   0  0  0  0  0  0  0  0  0  0  0  0
  -17.0250  -30.5710   54.1310 C   0  0  0  0  0  2  0  0  0  0  0  0
  -17.2400  -30.7740   52.6600 C   0  0  0  0  0  2  0  0  0  0  0  0
  -16.7410  -32.0200   51.9930 C   0  0  0  0  0  2  0  0  0  0  0  0
  -16.0250  -33.0660   52.7970 N   0  0  0  0  0  2  0  0  0  0  0  0
  -15.8090  -32.8630   54.2680 C   0  0  0  0  0  3  0  0  0  0  0  0
  -16.3090  -31.6160   54.9340 C   0  0  0  0  0  2  0  0  0  0  0  0
  -16.6680  -31.4610   53.6550 H   0  0  0  0  0  0  0  0  0  0  0  0
  -17.7510  -30.0280   52.0870 H   0  0  0  0  0  0  0  0  0  0  0  0
  -17.3950  -30.9180   51.6110 H   0  0  0  0  0  0  0  0  0  0  0  0
  -16.8950  -32.1650   50.9440 H   0  0  0  0  0  0  0  0  0  0  0  0
  -16.3840  -32.9110   51.5180 H   0  0  0  0  0  0  0  0  0  0  0  0
  -15.6850  -33.9140   52.3430 H   0  0  0  0  0  0  0  0  0  0  0  0
  -15.2990  -33.6090   54.8400 H   0  0  0  0  0  0  0  0  0  0  0  0
  -15.6560  -32.7190   55.3170 H   0  0  0  0  0  0  0  0  0  0  0  0
  -16.1550  -31.4720   55.9830 H   0  0  0  0  0  0  0  0  0  0  0  0
  -16.6660  -30.7260   55.4100 H   0  0  0  0  0  0  0  0  0  0  0  0
  -22.3960  -32.6550   54.3360 N   0  0  0  0  0  0  0  0  0  0  0  0
  -21.8170  -31.3670   53.8300 C   0  0  0  0  0  0  0  0  0  0  0  0
  -22.3930  -30.7160   52.6070 N   0  0  0  0  0  0  0  0  0  0  0  0
  -21.8140  -29.4280   52.1000 C   0  0  0  0  0  0  0  0  0  0  0  0
  -20.6610  -28.7910   52.8160 C   0  0  0  0  0  0  0  0  0  0  0  0
  -20.0850  -29.4420   54.0390 C   0  0  0  0  0  0  0  0  0  0  0  0
  -20.6640  -30.7300   54.5460 N   0  0  0  0  0  0  0  0  0  0  0  0
  -23.1530  -33.0730   53.8660 H   0  0  0  0  0  0  0  0  0  0  0  0
  -22.0180  -33.0820   55.1390 H   0  0  0  0  0  0  0  0  0  0  0  0
  -22.2110  -28.9800   51.2590 H   0  0  0  0  0  0  0  0  0  0  0  0
  -20.2630  -27.9050   52.4680 H   0  0  0  0  0  0  0  0  0  0  0  0
  -20.1950  -26.6840   55.7790 C   0  0  0  0  0  0  0  0  0  0  0  0
  -21.5650  -27.2640   55.5860 C   0  0  0  0  0  0  0  0  0  0  0  0
  -22.7780  -26.4110   55.8100 C   0  0  0  0  0  0  0  0  0  0  0  0
  -22.6220  -24.9790   56.2260 C   0  0  0  0  0  0  0  0  0  0  0  0
  -23.8370  -24.1260   56.4500 F   0  0  0  0  0  0  0  0  0  0  0  0
  -21.2530  -24.3990   56.4180 C   0  0  0  0  0  0  0  0  0  0  0  0
  -20.0390  -25.2520   56.1950 C   0  0  0  0  0  0  0  0  0  0  0  0
  -21.6730  -28.2490   55.3000 H   0  0  0  0  0  0  0  0  0  0  0  0
  -23.7210  -26.8110   55.6770 H   0  0  0  0  0  0  0  0  0  0  0  0
  -21.1450  -23.4130   56.7050 H   0  0  0  0  0  0  0  0  0  0  0  0
  -19.0970  -24.8520   56.3270 H   0  0  0  0  0  0  0  0  0  0  0  0
  1  5  1  0
  1  2  2  0
  2 34  1  0
  2  3  1  0
  4  6  1  0
  4  3  2  0
  5  4  1  0
  7  5  1  0
 10 11  1  0
 11 19  1  0
 11 20  1  0
 12 22  1  0
 12 21  1  0
 13  7  1  0
 14  8  1  0
 15  8  1  0
 16  9  1  0
 17  9  1  0
 18 10  1  0
 23 31  1  0
 24 23  1  0
 24 29  1  0
 25 24  2  0
 26 25  1  0
 26 27  2  0
 27 28  1  0
 28 29  2  0
 28  1  1  0
 30 23  1  0
 32 26  1  0
 33 27  1  0
 34 40  1  0
 35 34  2  0
 35 36  1  0
 36 37  2  0
 37 39  1  0
 37 38  1  0
 39 43  1  0
 40 44  1  0
 40 39  2  0
 41 35  1  0
 42 36  1  0
M  END
>  <minimizedAffinity>  (342) 
-7.96039295

$$$$

     RDKit          3D

 66 64  0  0  0  0  0  0  0  0999 V2000
  -24.8950  -27.2010   55.4210 C   0  0  0  0  0  0  0  0  0  0  0  0
  -25.2300  -25.7960   55.8260 C   0  0  0  0  0  0  0  0  0  0  0  0
  -24.1350  -24.8450   56.2120 C   0  0  0  0  0  0  0  0  0  0  0  0
  -22.7060  -25.3000   56.1920 C   0  0  0  0  0  0  0  0  0  0  0  0
  -21.6110  -24.3500   56.5770 N   0  0  0  0  0  0  0  0  0  0  0  0
  -20.1810  -24.8050   56.5580 C   0  0  0  0  0  0  0  0  0  0  0  0
  -19.8470  -26.2100   56.1530 N   0  0  0  0  0  0  0  0  0  0  0  0
  -20.9420  -27.1600   55.7670 C   0  0  0  0  0  0  0  0  0  0  0  0
  -20.6070  -28.5650   55.3630 N   0  0  0  0  0  0  0  0  0  0  0  0
  -22.3710  -26.7050   55.7870 C   0  0  0  0  0  0  0  0  0  0  0  0
  -23.4660  -27.6550   55.4020 C   0  0  0  0  0  0  0  0  0  0  0  0
  -26.2130  -25.4830   55.8400 H   0  0  0  0  0  0  0  0  0  0  0  0
  -24.3650  -23.8780   56.4900 H   0  0  0  0  0  0  0  0  0  0  0  0
  -19.4280  -24.1510   56.8230 H   0  0  0  0  0  0  0  0  0  0  0  0
  -21.3260  -29.1890   55.1100 H   0  0  0  0  0  0  0  0  0  0  0  0
  -23.2360  -28.6220   55.1230 H   0  0  0  0  0  0  0  0  0  0  0  0
  -19.1780  -29.0200   55.3430 C   0  0  0  0  0  0  0  0  0  0  0  0
  -18.1580  -28.2530   54.5540 C   0  0  0  0  0  0  0  0  0  0  0  0
  -16.7290  -28.7080   54.5350 C   0  0  0  0  0  0  0  0  0  0  0  0
  -16.3190  -29.9290   55.3040 C   0  0  0  0  0  0  0  0  0  0  0  0
  -17.3400  -30.6960   56.0920 C   0  0  0  0  0  0  0  0  0  0  0  0
  -18.7690  -30.2410   56.1120 C   0  0  0  0  0  0  0  0  0  0  0  0
  -18.4390  -27.4130   54.0250 H   0  0  0  0  0  0  0  0  0  0  0  0
  -16.0270  -28.1810   53.9920 H   0  0  0  0  0  0  0  0  0  0  0  0
  -17.0580  -31.5360   56.6210 H   0  0  0  0  0  0  0  0  0  0  0  0
  -19.4710  -30.7690   56.6540 H   0  0  0  0  0  0  0  0  0  0  0  0
  -14.8900  -30.3840   55.2840 O   0  0  0  0  0  0  0  0  0  0  0  0
  -14.4880  -31.6250   56.0250 C   0  0  0  0  0  0  0  0  0  0  0  0
  -14.7190  -32.5880   55.6210 H   0  0  0  0  0  0  0  0  0  0  0  0
  -14.2010  -32.5100   56.5530 H   0  0  0  0  0  0  0  0  0  0  0  0
  -13.7600  -31.5150   57.3320 C   0  0  0  0  0  0  0  0  0  0  0  0
  -14.5020  -31.1110   58.5710 C   0  0  0  0  0  0  0  0  0  0  0  0
  -13.7750  -31.0010   59.8790 C   0  0  0  0  0  0  0  0  0  0  0  0
  -12.3050  -31.2960   59.9460 C   0  0  0  0  0  0  0  0  0  0  0  0
  -11.5640  -31.7000   58.7070 C   0  0  0  0  0  0  0  0  0  0  0  0
  -12.2910  -31.8090   57.4000 C   0  0  0  0  0  0  0  0  0  0  0  0
  -15.5130  -30.9080   58.5250 H   0  0  0  0  0  0  0  0  0  0  0  0
  -14.2850  -30.7230   60.7320 H   0  0  0  0  0  0  0  0  0  0  0  0
  -11.8050  -31.2200   60.8460 H   0  0  0  0  0  0  0  0  0  0  0  0
  -10.5530  -31.9020   58.7530 H   0  0  0  0  0  0  0  0  0  0  0  0
  -11.7800  -32.0880   56.5470 H   0  0  0  0  0  0  0  0  0  0  0  0
  -25.8060  -29.4920   54.3900 C   0  0  0  0  0 15  0  0  0  0  0  0
  -27.1640  -30.0970   54.1840 C   0  0  0  0  0  3  0  0  0  0  0  0
  -28.1860  -29.1290   54.7030 C   0  0  0  0  0  0  0  0  0  0  0  0
  -27.4610  -27.9270   55.2290 O   0  0  0  0  0  0  0  0  0  0  0  0
  -25.9900  -28.1510   55.0360 C   0  0  0  0  0  2  0  0  0  0  0  0
  -27.3590  -31.0170   53.7600 H   0  0  0  0  0  0  0  0  0  0  0  0
  -29.2080  -29.2670   54.6980 H   0  0  0  0  0  0  0  0  0  0  0  0
  -24.4960  -30.1180   54.0160 C   0  0  0  0  0  2  0  0  0  0  0  0
  -24.0230  -30.8090   54.6830 H   0  0  0  0  0  0  0  0  0  0  0  0
  -24.9580  -30.3620   54.9490 H   0  0  0  0  0  0  0  0  0  0  0  0
  -23.8470  -29.7770   52.7070 N   0  0  0  0  0  1  0  0  0  0  0  0
  -24.4240  -29.5450   51.8980 H   0  0  0  0  0  0  0  0  0  0  0  0
  -22.3520  -29.7770   52.5880 C   0  0  0  0  0  2  0  0  0  0  0  0
  -21.7870  -28.9410   52.9450 H   0  0  0  0  0  0  0  0  0  0  0  0
  -22.8540  -28.9410   53.0300 H   0  0  0  0  0  0  0  0  0  0  0  0
  -21.6490  -30.9470   51.9680 C   0  0  0  0  0  3  0  0  0  0  0  0
  -21.8160  -31.1870   50.9390 H   0  0  0  0  0  0  0  0  0  0  0  0
  -22.3180  -30.3530   51.3810 H   0  0  0  0  0  0  0  0  0  0  0  0
  -20.7100  -31.7800   52.7890 S   0  0  2  0  0  0  0  0  0  0  0  0
  -19.5730  -30.8840   52.3990 O   0  0  0  0  0  0  0  0  0  0  0  0
  -21.8480  -32.6760   53.1800 O   0  0  0  0  0  0  0  0  0  0  0  0
  -19.7720  -32.6130   53.6110 C   0  0  0  0  0  0  0  0  0  0  0  0
  -18.7350  -32.3570   53.6630 H   0  0  0  0  0  0  0  0  0  0  0  0
  -20.1400  -33.4640   54.1460 H   0  0  0  0  0  0  0  0  0  0  0  0
  -19.1020  -33.2070   54.1970 H   0  0  0  0  0  0  0  0  0  0  0  0
  1  2  1  0
  2 12  1  0
  2  3  2  0
  3 13  1  0
  4  3  1  0
  4  5  1  0
  6  5  2  0
  6 14  1  0
  7  6  1  0
  8 10  1  0
  8  7  2  0
  9  8  1  0
 10  4  2  0
 11  1  2  0
 11 10  1  0
 15  9  1  0
 16 11  1  0
 17  9  1  0
 17 22  1  0
 18 17  2  0
 19 18  1  0
 19 20  2  0
 20 21  1  0
 21 22  2  0
 21 25  1  0
 22 26  1  0
 23 18  1  0
 24 19  1  0
 27 20  1  0
 27 28  1  0
 28 30  1  0
 28 31  1  0
 29 28  1  0
 31 36  2  0
 31 32  1  0
 32 33  2  0
 33 34  1  0
 33 38  1  0
 34 39  1  0
 35 40  1  0
 35 34  2  0
 36 35  1  0
 37 32  1  0
 41 36  1  0
 43 44  2  0
 44 45  1  0
 46 45  1  0
 46  1  1  0
 47 43  1  0
 48 44  1  0
 49 50  1  0
 49 51  1  0
 53 52  1  0
 54 55  1  0
 54 56  1  0
 57 60  1  0
 58 57  1  0
 59 57  1  0
 60 62  2  0
 60 63  1  0
 61 60  2  0
 63 64  1  0
 63 65  1  0
 63 66  1  0
M  END
>  <minimizedAffinity>  (343) 
-11.9426603

$$$$

     RDKit          3D

 66 67  0  0  0  0  0  0  0  0999 V2000
  -24.8150  -27.4970   55.2950 C   0  0  0  0  0  0  0  0  0  0  0  0
  -25.2040  -26.1100   55.7150 C   0  0  0  0  0  0  0  0  0  0  0  0
  -24.1490  -25.1330   56.1430 C   0  0  0  0  0  0  0  0  0  0  0  0
  -22.7060  -25.5420   56.1520 C   0  0  0  0  0  0  0  0  0  0  0  0
  -21.6520  -24.5650   56.5800 N   0  0  0  0  0  0  0  0  0  0  0  0
  -20.2090  -24.9750   56.5890 C   0  0  0  0  0  0  0  0  0  0  0  0
  -19.8200  -26.3610   56.1680 N   0  0  0  0  0  0  0  0  0  0  0  0
  -20.8750  -27.3380   55.7400 C   0  0  0  0  0  0  0  0  0  0  0  0
  -20.4860  -28.7250   55.3200 N   0  0  0  0  0  0  0  0  0  0  0  0
  -22.3180  -26.9290   55.7320 C   0  0  0  0  0  0  0  0  0  0  0  0
  -23.3720  -27.9060   55.3030 C   0  0  0  0  0  0  0  0  0  0  0  0
  -26.1970  -25.8280   55.7090 H   0  0  0  0  0  0  0  0  0  0  0  0
  -24.4170  -24.1790   56.4330 H   0  0  0  0  0  0  0  0  0  0  0  0
  -19.4840  -24.3020   56.8840 H   0  0  0  0  0  0  0  0  0  0  0  0
  -21.1780  -29.3660   55.0380 H   0  0  0  0  0  0  0  0  0  0  0  0
  -23.1050  -28.8600   55.0140 H   0  0  0  0  0  0  0  0  0  0  0  0
  -19.0430  -29.1340   55.3280 C   0  0  0  0  0  0  0  0  0  0  0  0
  -18.0180  -28.2840   54.6370 C   0  0  0  0  0  0  0  0  0  0  0  0
  -16.5750  -28.6940   54.6460 C   0  0  0  0  0  0  0  0  0  0  0  0
  -16.1570  -29.9530   55.3450 C   0  0  0  0  0  0  0  0  0  0  0  0
  -17.1820  -30.8030   56.0360 C   0  0  0  0  0  0  0  0  0  0  0  0
  -18.6250  -30.3940   56.0270 C   0  0  0  0  0  0  0  0  0  0  0  0
  -18.3060  -27.4170   54.1560 H   0  0  0  0  0  0  0  0  0  0  0  0
  -15.8700  -28.1090   54.1700 H   0  0  0  0  0  0  0  0  0  0  0  0
  -16.8940  -31.6700   56.5170 H   0  0  0  0  0  0  0  0  0  0  0  0
  -19.3300  -30.9790   56.5030 H   0  0  0  0  0  0  0  0  0  0  0  0
  -14.7140  -30.3620   55.3530 O   0  0  0  0  0  0  0  0  0  0  0  0
  -14.2870  -31.5910   56.1000 C   0  0  0  0  0  0  0  0  0  0  0  0
  -14.4440  -32.5590   55.6720 H   0  0  0  0  0  0  0  0  0  0  0  0
  -13.9830  -32.4680   56.6330 H   0  0  0  0  0  0  0  0  0  0  0  0
  -13.6400  -31.4630   57.4470 C   0  0  0  0  0  0  0  0  0  0  0  0
  -12.1640  -31.6810   57.5940 C   0  0  0  0  0  0  0  0  0  0  0  0
  -11.5170  -31.5530   58.9410 C   0  0  0  0  0  0  0  0  0  0  0  0
  -12.3460  -31.2060   60.1420 C   0  0  0  0  0  0  0  0  0  0  0  0
  -13.8230  -30.9880   59.9950 C   0  0  0  0  0  0  0  0  0  0  0  0
  -14.4700  -31.1160   58.6480 C   0  0  0  0  0  0  0  0  0  0  0  0
  -11.5920  -31.9200   56.7680 H   0  0  0  0  0  0  0  0  0  0  0  0
  -10.5000  -31.7030   59.0420 H   0  0  0  0  0  0  0  0  0  0  0  0
  -11.9010  -31.1180   61.0690 H   0  0  0  0  0  0  0  0  0  0  0  0
  -14.3940  -30.7490   60.8210 H   0  0  0  0  0  0  0  0  0  0  0  0
  -15.4860  -30.9660   58.5470 H   0  0  0  0  0  0  0  0  0  0  0  0
  -26.9710  -30.3840   53.8530 C   0  0  0  0  0  3  0  0  0  0  0  0
  -28.0130  -29.5700   54.5600 C   0  0  0  0  0  0  0  0  0  0  0  0
  -27.3330  -28.3890   55.1860 C   0  0  0  0  0  0  0  0  0  0  0  0
  -25.8690  -28.4740   54.8660 C   0  0  0  0  0  0  0  0  0  0  0  0
  -25.6460  -29.7060   54.0420 O   0  0  0  0  0  0  0  0  0  0  0  0
  -29.0210  -29.7850   54.6070 H   0  0  0  0  0  0  0  0  0  0  0  0
  -27.7900  -27.6490   55.7400 H   0  0  0  0  0  0  0  0  0  0  0  0
  -27.2110  -31.6540   53.0900 C   0  0  0  0  0  3  0  0  0  0  0  0
  -28.0980  -32.2250   53.2680 H   0  0  0  0  0  0  0  0  0  0  0  0
  -27.9270  -31.3200   53.8120 H   0  0  0  0  0  0  0  0  0  0  0  0
  -26.2080  -32.1220   52.0780 N   0  0  0  0  0  2  0  0  0  0  0  0
  -26.0420  -31.5740   51.2330 H   0  0  0  0  0  0  0  0  0  0  0  0
  -25.4480  -33.3950   52.3090 C   0  0  0  0  0  2  0  0  0  0  0  0
  -25.9460  -34.2480   52.7190 H   0  0  0  0  0  0  0  0  0  0  0  0
  -26.4880  -33.3410   52.5540 H   0  0  0  0  0  0  0  0  0  0  0  0
  -23.9900  -33.4700   51.9640 C   0  0  0  0  0  3  0  0  0  0  0  0
  -23.6840  -33.5150   50.9410 H   0  0  0  0  0  0  0  0  0  0  0  0
  -24.7230  -33.4620   51.1860 H   0  0  0  0  0  0  0  0  0  0  0  0
  -22.9620  -33.4820   53.0570 S   0  0  1  0  0  0  0  0  0  0  0  0
  -23.1590  -32.0100   53.2590 O   0  0  0  0  0  0  0  0  0  0  0  0
  -22.7650  -34.9550   52.8540 O   0  0  0  0  0  0  0  0  0  0  0  0
  -21.9340  -33.4950   54.1480 C   0  0  0  0  0  0  0  0  0  0  0  0
  -21.4450  -34.4100   54.4130 H   0  0  0  0  0  0  0  0  0  0  0  0
  -21.6890  -32.5900   54.6630 H   0  0  0  0  0  0  0  0  0  0  0  0
  -21.2000  -33.5040   54.9280 H   0  0  0  0  0  0  0  0  0  0  0  0
  1 11  2  0
  1  2  1  0
  2  3  2  0
  3  4  1  0
  3 13  1  0
  4  5  1  0
  5  6  2  0
  6 14  1  0
  7  6  1  0
  8  7  2  0
  9 17  1  0
  9  8  1  0
 10  8  1  0
 10  4  2  0
 11 10  1  0
 12  2  1  0
 15  9  1  0
 16 11  1  0
 17 22  1  0
 18 19  1  0
 18 17  2  0
 19 20  2  0
 20 27  1  0
 20 21  1  0
 21 25  1  0
 22 21  2  0
 22 26  1  0
 23 18  1  0
 24 19  1  0
 27 28  1  0
 28 30  1  0
 28 31  1  0
 29 28  1  0
 31 32  2  0
 31 36  1  0
 32 33  1  0
 33 38  1  0
 33 34  2  0
 34 39  1  0
 35 34  1  0
 35 40  1  0
 36 35  2  0
 37 32  1  0
 41 36  1  0
 42 46  1  0
 42 43  2  0
 43 47  1  0
 43 44  1  0
 44 48  1  0
 45 44  2  0
 45  1  1  0
 46 45  1  0
 49 50  1  0
 49 51  1  0
 52 49  1  0
 53 52  1  0
 54 56  1  0
 54 55  1  0
 57 60  1  0
 58 57  1  0
 59 57  1  0
 60 61  2  0
 60 63  1  0
 62 60  2  0
 63 64  1  0
 63 65  1  0
 63 66  1  0
M  END
>  <minimizedAffinity>  (344) 
-11.5664921

$$$$

     RDKit          3D

 37 39  0  0  0  0  0  0  0  0999 V2000
  -20.7990  -26.5630   55.1280 C   0  0  0  0  0  0  0  0  0  0  0  0
  -19.9480  -27.2500   56.1550 C   0  0  0  0  0  0  0  0  0  0  0  0
  -20.3660  -26.1770   54.2740 H   0  0  0  0  0  0  0  0  0  0  0  0
  -20.3820  -27.6360   57.0090 H   0  0  0  0  0  0  0  0  0  0  0  0
  -18.4690  -27.3770   55.9410 C   0  0  0  0  0  0  0  0  0  0  0  0
  -17.8820  -28.6930   55.5250 C   0  0  0  0  0  0  0  0  0  0  0  0
  -16.4030  -28.8200   55.3110 N   0  0  0  0  0  0  0  0  0  0  0  0
  -15.5110  -27.6310   55.5130 C   0  0  0  0  0  0  0  0  0  0  0  0
  -16.0980  -26.3150   55.9290 C   0  0  0  0  0  0  0  0  0  0  0  0
  -17.5780  -26.1880   56.1430 C   0  0  0  0  0  0  0  0  0  0  0  0
  -18.4950  -29.5110   55.3860 H   0  0  0  0  0  0  0  0  0  0  0  0
  -14.4930  -27.7180   55.3660 H   0  0  0  0  0  0  0  0  0  0  0  0
  -17.9820  -25.2820   56.4290 H   0  0  0  0  0  0  0  0  0  0  0  0
  -15.2070  -25.1260   56.1310 C   0  0  0  0  0  0  0  0  0  0  0  0
  -14.3360  -24.8690   57.3260 N   0  0  0  0  0  0  0  0  0  0  0  0
  -13.6200  -23.5690   57.1070 N   0  0  0  0  0  2  0  0  0  0  0  0
  -14.0490  -23.0220   55.7780 N   0  0  0  0  0  0  0  0  0  0  0  0
  -15.0290  -23.9840   55.1740 N   0  0  0  0  0  2  0  0  0  0  0  0
  -13.7400  -22.1800   55.3720 H   0  0  0  0  0  0  0  0  0  0  0  0
  -23.1990  -27.5240   54.8750 C   0  0  0  0  0  0  0  0  0  0  0  0
  -24.6780  -27.3970   55.0890 C   0  0  0  0  0  0  0  0  0  0  0  0
  -25.2360  -26.1820   55.7700 C   0  0  0  0  0  0  0  0  0  0  0  0
  -24.3150  -25.0950   56.2370 C   0  0  0  0  0  0  0  0  0  0  0  0
  -22.8360  -25.2210   56.0230 C   0  0  0  0  0  0  0  0  0  0  0  0
  -22.2780  -26.4360   55.3420 C   0  0  0  0  0  0  0  0  0  0  0  0
  -25.3120  -28.1460   54.7680 H   0  0  0  0  0  0  0  0  0  0  0  0
  -24.6990  -24.2590   56.7050 H   0  0  0  0  0  0  0  0  0  0  0  0
  -22.6410  -28.7380   54.1950 C   0  0  0  0  0  0  0  0  0  0  0  0
  -23.2990  -29.5150   53.8610 H   0  0  0  0  0  0  0  0  0  0  0  0
  -21.5860  -28.8290   54.0420 H   0  0  0  0  0  0  0  0  0  0  0  0
  -22.2430  -29.6050   53.7090 H   0  0  0  0  0  0  0  0  0  0  0  0
  -21.9150  -24.1340   56.4900 C   0  0  0  0  0  0  0  0  0  0  0  0
  -20.8590  -24.2240   56.3370 H   0  0  0  0  0  0  0  0  0  0  0  0
  -22.3130  -23.2670   56.9750 H   0  0  0  0  0  0  0  0  0  0  0  0
  -21.2570  -23.3580   56.8230 H   0  0  0  0  0  0  0  0  0  0  0  0
  -26.7150  -26.0560   55.9840 O   0  0  0  0  0  0  0  0  0  0  0  0
  -27.0640  -25.2970   56.4090 H   0  0  0  0  0  0  0  0  0  0  0  0
  1 25  1  0
  1  2  2  0
  2  4  1  0
  3  1  1  0
  5 10  1  0
  5  2  1  0
  6  5  2  0
  7  8  2  0
  7  6  1  0
  8  9  1  0
  9 14  1  0
  9 10  2  0
 10 13  1  0
 11  6  1  0
 12  8  1  0
 14 15  2  0
 16 15  1  0
 17 16  1  0
 18 17  1  0
 18 14  1  0
 19 17  1  0
 20 21  2  0
 20 25  1  0
 21 22  1  0
 22 36  1  0
 22 23  2  0
 23 27  1  0
 24 23  1  0
 24 32  1  0
 25 24  2  0
 26 21  1  0
 28 20  1  0
 29 28  1  0
 30 28  1  0
 31 28  1  0
 32 35  1  0
 32 34  1  0
 33 32  1  0
 36 37  1  0
M  END
>  <minimizedAffinity>  (345) 
-8.97122574

$$$$

     RDKit          3D

 44 47  0  0  0  0  0  0  0  0999 V2000
  -15.1390  -30.9320   57.0450 C   0  0  0  0  0  0  0  0  0  0  0  0
  -16.3030  -31.8730   56.9530 C   0  0  0  0  0  0  0  0  0  0  0  0
  -17.4650  -31.5440   56.0630 C   0  0  0  0  0  0  0  0  0  0  0  0
  -17.4620  -30.2750   55.2650 C   0  0  0  0  0  0  0  0  0  0  0  0
  -16.2980  -29.3330   55.3560 C   0  0  0  0  0  0  0  0  0  0  0  0
  -15.1360  -29.6630   56.2460 C   0  0  0  0  0  0  0  0  0  0  0  0
  -16.3050  -32.7470   57.5030 H   0  0  0  0  0  0  0  0  0  0  0  0
  -18.2660  -32.1920   56.0000 H   0  0  0  0  0  0  0  0  0  0  0  0
  -16.2960  -28.4600   54.8070 H   0  0  0  0  0  0  0  0  0  0  0  0
  -14.3350  -29.0150   56.3090 H   0  0  0  0  0  0  0  0  0  0  0  0
  -12.9130  -31.8010   54.9020 N   0  0  0  0  0  0  0  0  0  0  0  0
  -12.0630  -32.0060   56.1210 C   0  0  0  0  0  0  0  0  0  0  0  0
  -10.6480  -32.4820   55.9760 N   0  0  0  0  0  0  0  0  0  0  0  0
   -9.7970  -32.6870   57.1950 C   0  0  0  0  0  0  0  0  0  0  0  0
  -10.3620  -32.4160   58.5580 N   0  0  0  0  0  0  0  0  0  0  0  0
  -11.7770  -31.9400   58.7020 C   0  0  0  0  0  0  0  0  0  0  0  0
  -12.6010  -31.5920   59.9070 O   0  0  0  0  0  0  0  0  0  0  0  0
  -13.9600  -31.1730   59.4320 C   0  0  0  0  0  0  0  0  0  0  0  0
  -13.9770  -31.2600   57.9350 C   0  0  0  0  0  0  0  0  0  0  0  0
  -12.6270  -31.7340   57.4840 C   0  0  0  0  0  0  0  0  0  0  0  0
  -12.5420  -31.9790   54.0080 H   0  0  0  0  0  0  0  0  0  0  0  0
  -13.8420  -31.4880   54.9970 H   0  0  0  0  0  0  0  0  0  0  0  0
   -8.8240  -33.0150   57.0950 H   0  0  0  0  0  0  0  0  0  0  0  0
  -14.7470  -30.8760   60.0310 H   0  0  0  0  0  0  0  0  0  0  0  0
  -18.6240  -29.9460   54.3740 N   0  0  0  0  0  0  0  0  0  0  0  0
  -19.7880  -29.1690   54.9160 C   0  0  0  0  0  0  0  0  0  0  0  0
  -19.7890  -28.7210   56.3470 O   0  0  0  0  0  0  0  0  0  0  0  0
  -20.9490  -28.8400   54.0260 N   0  0  0  0  0  0  0  0  0  0  0  0
  -18.6230  -30.2390   53.4340 H   0  0  0  0  0  0  0  0  0  0  0  0
  -20.9480  -29.1340   53.0860 H   0  0  0  0  0  0  0  0  0  0  0  0
  -22.1120  -28.0630   54.5670 C   0  0  0  0  0  0  0  0  0  0  0  0
  -21.8850  -26.7390   55.2340 C   0  0  0  0  0  0  0  0  0  0  0  0
  -23.0480  -25.9620   55.7760 C   0  0  0  0  0  0  0  0  0  0  0  0
  -24.4390  -26.5090   55.6510 C   0  0  0  0  0  0  0  0  0  0  0  0
  -24.6660  -27.8340   54.9840 C   0  0  0  0  0  0  0  0  0  0  0  0
  -23.5030  -28.6100   54.4430 C   0  0  0  0  0  0  0  0  0  0  0  0
  -23.7300  -29.9350   53.7760 F   0  0  0  0  0  0  0  0  0  0  0  0
  -20.9280  -26.3620   55.3200 H   0  0  0  0  0  0  0  0  0  0  0  0
  -25.2390  -25.9750   56.0230 H   0  0  0  0  0  0  0  0  0  0  0  0
  -25.6240  -28.2110   54.8980 H   0  0  0  0  0  0  0  0  0  0  0  0
  -22.8210  -24.6380   56.4420 C   0  0  0  0  0  0  0  0  0  0  0  0
  -22.5930  -23.3140   57.1090 F   0  0  0  0  0  0  0  0  0  0  0  0
  -21.3410  -24.8820   56.4220 F   0  0  0  0  0  0  0  0  0  0  0  0
  -24.3000  -24.3940   56.4630 F   0  0  0  0  0  0  0  0  0  0  0  0
  1 19  1  0
  2  1  1  0
  2  7  1  0
  3  2  2  0
  4  5  2  0
  4  3  1  0
  5  6  1  0
  6 10  1  0
  6  1  2  0
  8  3  1  0
  9  5  1  0
 11 22  1  0
 11 12  1  0
 12 20  2  0
 13 12  1  0
 13 14  2  0
 14 15  1  0
 15 16  2  0
 16 17  1  0
 18 17  1  0
 18 24  1  0
 19 18  2  0
 20 19  1  0
 20 16  1  0
 21 11  1  0
 23 14  1  0
 25 26  1  0
 25  4  1  0
 26 27  2  0
 28 31  1  0
 28 26  1  0
 29 25  1  0
 30 28  1  0
 31 32  1  0
 32 38  1  0
 32 33  2  0
 33 41  1  0
 34 33  1  0
 34 39  1  0
 35 34  2  0
 36 31  2  0
 36 35  1  0
 37 36  1  0
 40 35  1  0
 41 44  1  0
 41 42  1  0
 43 41  1  0
M  END
>  <minimizedAffinity>  (346) 
-9.96040535

$$$$

     RDKit          3D

 44 46  0  0  0  0  0  0  0  0999 V2000
  -22.9360  -26.7620   54.9200 C   0  0  0  0  0  0  0  0  0  0  0  0
  -24.1900  -26.0860   55.3870 C   0  0  0  0  0  0  0  0  0  0  0  0
  -24.1080  -24.9060   56.3090 C   0  0  0  0  0  0  0  0  0  0  0  0
  -22.7700  -24.4020   56.7640 C   0  0  0  0  0  0  0  0  0  0  0  0
  -21.5150  -25.0780   56.2970 C   0  0  0  0  0  0  0  0  0  0  0  0
  -21.5980  -26.2580   55.3750 C   0  0  0  0  0  0  0  0  0  0  0  0
  -20.2000  -26.7180   55.0830 C   0  0  0  0  0  0  0  0  0  0  0  0
  -19.8170  -27.8700   54.2040 N   0  0  0  0  0  0  0  0  0  0  0  0
  -19.2540  -25.8210   55.8250 C   0  0  0  0  0  0  0  0  0  0  0  0
  -17.7570  -25.9210   55.8170 O   0  0  0  0  0  0  0  0  0  0  0  0
  -20.0660  -24.8080   56.5750 N   0  0  0  0  0  0  0  0  0  0  0  0
  -25.1110  -26.4330   55.0740 H   0  0  0  0  0  0  0  0  0  0  0  0
  -24.9710  -24.4410   56.6310 H   0  0  0  0  0  0  0  0  0  0  0  0
  -22.7130  -23.5900   57.3990 H   0  0  0  0  0  0  0  0  0  0  0  0
  -19.7110  -24.0920   57.1490 H   0  0  0  0  0  0  0  0  0  0  0  0
  -23.9750  -29.0590   54.2930 C   0  0  0  0  0  0  0  0  0  0  0  0
  -23.0190  -27.9420   53.9980 C   0  0  0  0  0  0  0  0  0  0  0  0
  -22.4170  -27.9860   53.1600 H   0  0  0  0  0  0  0  0  0  0  0  0
  -24.0580  -30.2390   53.3700 C   0  0  0  0  0  0  0  0  0  0  0  0
  -24.7410  -31.0360   53.5810 H   0  0  0  0  0  0  0  0  0  0  0  0
  -23.4350  -30.2840   52.5020 H   0  0  0  0  0  0  0  0  0  0  0  0
  -24.1170  -31.0810   52.7130 H   0  0  0  0  0  0  0  0  0  0  0  0
  -24.8490  -28.9960   55.5100 C   0  0  0  0  0  0  0  0  0  0  0  0
  -24.7900  -28.1540   56.1680 H   0  0  0  0  0  0  0  0  0  0  0  0
  -25.5320  -29.7930   55.7210 H   0  0  0  0  0  0  0  0  0  0  0  0
  -25.4730  -28.9510   56.3790 H   0  0  0  0  0  0  0  0  0  0  0  0
  -18.3700  -28.2130   54.0050 N   0  0  0  0  0  0  0  0  0  0  0  0
  -17.8330  -27.7180   53.3440 H   0  0  0  0  0  0  0  0  0  0  0  0
  -17.7410  -29.3100   54.8120 C   0  0  0  0  0  0  0  0  0  0  0  0
  -18.5250  -30.5470   55.1360 C   0  0  0  0  0  0  0  0  0  0  0  0
  -17.8950  -31.6430   55.9430 C   0  0  0  0  0  0  0  0  0  0  0  0
  -16.4820  -31.5030   56.4270 C   0  0  0  0  0  0  0  0  0  0  0  0
  -15.6990  -30.2650   56.1040 C   0  0  0  0  0  0  0  0  0  0  0  0
  -16.3280  -29.1680   55.2960 C   0  0  0  0  0  0  0  0  0  0  0  0
  -19.4960  -30.6440   54.8030 H   0  0  0  0  0  0  0  0  0  0  0  0
  -18.4350  -32.4950   56.1660 H   0  0  0  0  0  0  0  0  0  0  0  0
  -14.7270  -30.1680   56.4370 H   0  0  0  0  0  0  0  0  0  0  0  0
  -15.7890  -28.3170   55.0730 H   0  0  0  0  0  0  0  0  0  0  0  0
  -15.8530  -32.5980   57.2350 S   0  0  2  0  0  0  0  0  0  0  0  0
  -16.7990  -33.5910   56.6250 O   0  0  0  0  0  0  0  0  0  0  0  0
  -14.9070  -31.6070   57.8440 O   0  0  0  0  0  0  0  0  0  0  0  0
  -15.2240  -33.6950   58.0420 N   0  0  0  0  0  0  0  0  0  0  0  0
  -15.5680  -34.6520   57.9570 H   0  0  0  0  0  0  0  0  0  0  0  0
  -14.4530  -33.4840   58.6750 H   0  0  0  0  0  0  0  0  0  0  0  0
  1  6  2  0
  1  2  1  0
  2  3  2  0
  3 13  1  0
  3  4  1  0
  4 14  1  0
  5 11  1  0
  5  4  2  0
  6  5  1  0
  7  6  1  0
  7  9  1  0
  8  7  2  0
  9 11  1  0
 10  9  2  0
 11 15  1  0
 12  2  1  0
 16 23  1  0
 17 16  2  0
 17  1  1  0
 18 17  1  0
 19 20  1  0
 19 16  1  0
 21 19  1  0
 22 19  1  0
 23 25  1  0
 23 24  1  0
 23 26  1  0
 27  8  1  0
 27 29  1  0
 28 27  1  0
 29 30  2  0
 29 34  1  0
 30 31  1  0
 31 36  1  0
 31 32  2  0
 32 39  1  0
 33 32  1  0
 33 37  1  0
 34 33  2  0
 35 30  1  0
 38 34  1  0
 39 41  2  0
 39 42  1  0
 40 39  2  0
 42 44  1  0
 43 42  1  0
M  END
>  <minimizedAffinity>  (347) 
-8.86857414

$$$$

     RDKit          3D

 68 61  0  0  0  0  0  0  0  0999 V2000
  -20.3540  -33.9110   54.4100 C   0  0  0  0  0  0  0  0  0  0  0  0
  -21.1350  -35.0870   54.9150 C   0  0  0  0  0  0  0  0  0  0  0  0
  -22.5750  -34.8770   54.5520 C   0  0  0  0  0  0  0  0  0  0  0  0
  -23.8020  -35.7060   54.7920 N   0  0  0  0  0  0  0  0  0  0  0  0
  -25.1370  -35.2290   54.3020 C   0  0  0  0  0  0  0  0  0  0  0  0
  -25.2460  -33.9230   53.5730 N   0  0  0  0  0  0  0  0  0  0  0  0
  -24.0190  -33.0940   53.3340 C   0  0  0  0  0  0  0  0  0  0  0  0
  -22.6840  -33.5700   53.8230 C   0  0  0  0  0  0  0  0  0  0  0  0
  -21.3100  -32.9730   53.7350 S   0  0  0  0  0  0  0  0  0  0  0  0
  -20.7490  -35.8990   55.4230 H   0  0  0  0  0  0  0  0  0  0  0  0
  -25.9810  -35.8000   54.4670 H   0  0  0  0  0  0  0  0  0  0  0  0
  -17.3960  -33.5030   54.7000 C   0  0  0  0  0 15  0  0  0  0  0  0
  -18.8750  -33.7070   54.5550 C   0  0  0  0  0  1  0  0  0  0  0  0
  -13.6220  -33.5000   55.6130 C   0  0  0  0  0  2  0  0  0  0  0  0
  -13.6570  -32.4730   54.5210 C   0  0  0  0  0  2  0  0  0  0  0  0
  -15.0750  -32.3490   54.0450 N   0  0  0  0  0  1  0  0  0  0  0  0
  -15.9170  -33.3000   54.8440 C   0  0  0  0  0  2  0  0  0  0  0  0
  -15.0190  -34.0120   55.8130 C   0  0  0  0  0  3  0  0  0  0  0  0
  -12.6940  -33.0380   55.3510 H   0  0  0  0  0  0  0  0  0  0  0  0
  -12.8190  -31.9250   54.1460 H   0  0  0  0  0  0  0  0  0  0  0  0
  -13.8470  -31.7720   53.7350 H   0  0  0  0  0  0  0  0  0  0  0  0
  -15.4080  -31.7270   53.3080 H   0  0  0  0  0  0  0  0  0  0  0  0
  -16.4170  -32.7130   54.1030 H   0  0  0  0  0  0  0  0  0  0  0  0
  -15.3220  -34.7530   56.5220 H   0  0  0  0  0  0  0  0  0  0  0  0
  -14.2550  -34.4270   56.4370 H   0  0  0  0  0  0  0  0  0  0  0  0
  -12.4060  -33.9400   56.3720 O   0  0  0  0  0  0  0  0  0  0  0  0
  -12.6570  -33.7600   58.9520 O   0  0  0  0  0  1  0  0  0  0  0  0
  -12.0510  -33.2750   57.6680 C   0  0  0  0  0  2  0  0  0  0  0  0
  -11.0880  -32.1240   57.6820 N   0  0  0  0  0  1  0  0  0  0  0  0
  -10.7330  -31.4590   58.9780 C   0  0  0  0  0  3  0  0  0  0  0  0
   -9.7700  -30.3070   58.9910 C   0  0  0  0  0  2  0  0  0  0  0  0
   -9.1640  -29.8220   57.7080 O   0  0  0  0  0 15  0  0  0  0  0  0
   -9.5190  -30.4880   56.4120 C   0  0  0  0  0  2  0  0  0  0  0  0
  -10.4820  -31.6390   56.3990 C   0  0  0  0  0  2  0  0  0  0  0  0
  -11.1660  -31.8040   59.8940 H   0  0  0  0  0  0  0  0  0  0  0  0
  -10.4790  -30.9830   59.9030 H   0  0  0  0  0  0  0  0  0  0  0  0
   -9.5170  -29.8330   59.9160 H   0  0  0  0  0  0  0  0  0  0  0  0
   -9.0840  -29.4870   59.0000 H   0  0  0  0  0  0  0  0  0  0  0  0
   -9.0860  -30.1420   55.4970 H   0  0  0  0  0  0  0  0  0  0  0  0
   -9.7730  -30.9630   55.4870 H   0  0  0  0  0  0  0  0  0  0  0  0
  -10.7350  -32.1130   55.4740 H   0  0  0  0  0  0  0  0  0  0  0  0
  -11.1680  -32.4600   56.3890 H   0  0  0  0  0  0  0  0  0  0  0  0
  -24.1270  -31.7870   52.6050 N   0  0  0  0  0  0  0  0  0  0  0  0
  -24.1680  -31.7750   51.6210 H   0  0  0  0  0  0  0  0  0  0  0  0
  -24.1730  -30.5000   53.3740 C   0  0  0  0  0  0  0  0  0  0  0  0
  -25.0700  -30.3730   54.5700 C   0  0  0  0  0  0  0  0  0  0  0  0
  -25.1160  -29.0870   55.3390 C   0  0  0  0  0  0  0  0  0  0  0  0
  -24.2660  -27.9270   54.9130 C   0  0  0  0  0  0  0  0  0  0  0  0
  -23.3690  -28.0540   53.7170 C   0  0  0  0  0  0  0  0  0  0  0  0
  -23.3230  -29.3410   52.9480 C   0  0  0  0  0  0  0  0  0  0  0  0
  -25.6550  -31.1710   54.8630 H   0  0  0  0  0  0  0  0  0  0  0  0
  -25.7330  -28.9990   56.1620 H   0  0  0  0  0  0  0  0  0  0  0  0
  -22.7840  -27.2560   53.4240 H   0  0  0  0  0  0  0  0  0  0  0  0
  -22.7060  -29.4280   52.1250 H   0  0  0  0  0  0  0  0  0  0  0  0
  -24.3120  -26.6400   55.6830 C   0  0  0  0  0  0  0  0  0  0  0  0
  -25.2480  -26.2590   56.0330 H   0  0  0  0  0  0  0  0  0  0  0  0
  -24.3440  -25.7220   56.2320 H   0  0  0  0  0  0  0  0  0  0  0  0
  -23.0450  -25.8870   55.9610 C   0  0  0  0  0  0  0  0  0  0  0  0
  -23.0730  -24.3930   56.0930 C   0  0  0  0  0  0  0  0  0  0  0  0
  -21.8060  -23.6410   56.3720 C   0  0  0  0  0  0  0  0  0  0  0  0
  -20.5100  -24.3820   56.5190 C   0  0  0  0  0  0  0  0  0  0  0  0
  -20.4820  -25.8750   56.3870 C   0  0  0  0  0  0  0  0  0  0  0  0
  -21.7490  -26.6280   56.1080 C   0  0  0  0  0  0  0  0  0  0  0  0
  -23.9650  -23.8840   55.9920 H   0  0  0  0  0  0  0  0  0  0  0  0
  -21.8260  -22.6130   56.4620 H   0  0  0  0  0  0  0  0  0  0  0  0
  -19.6380  -23.8640   56.7110 H   0  0  0  0  0  0  0  0  0  0  0  0
  -19.5900  -26.3850   56.4880 H   0  0  0  0  0  0  0  0  0  0  0  0
  -21.7290  -27.6560   56.0180 H   0  0  0  0  0  0  0  0  0  0  0  0
  1 13  1  0
  1  2  2  0
  2 10  1  0
  3  4  1  0
  3  2  1  0
  5 11  1  0
  5  4  2  0
  6  5  1  0
  7  6  2  0
  7  8  1  0
  8  3  2  0
  9  8  1  0
  9  1  1  0
 14 26  1  0
 17 18  1  0
 18 25  1  0
 18 24  1  0
 19 14  1  0
 20 15  1  0
 21 15  1  0
 22 16  1  0
 23 17  1  0
 26 28  1  0
 28 27  1  0
 29 30  1  0
 30 35  1  0
 30 36  1  0
 31 38  1  0
 31 37  1  0
 39 33  1  0
 40 33  1  0
 41 34  1  0
 42 34  1  0
 43  7  1  0
 43 45  1  0
 44 43  1  0
 45 46  1  0
 46 51  1  0
 46 47  2  0
 47 52  1  0
 48 47  1  0
 48 55  1  0
 49 48  2  0
 50 45  2  0
 50 49  1  0
 53 49  1  0
 54 50  1  0
 55 58  1  0
 55 56  1  0
 55 57  1  0
 58 59  2  0
 58 63  1  0
 59 60  1  0
 60 65  1  0
 60 61  2  0
 61 66  1  0
 62 67  1  0
 62 61  1  0
 63 62  2  0
 64 59  1  0
 68 63  1  0
M  END
>  <minimizedAffinity>  (348) 
-11.0489311

$$$$

     RDKit          3D

 45 41  0  0  0  0  0  0  0  0999 V2000
  -18.0370  -27.6200   55.1890 C   0  0  0  0  0  2  0  0  0  0  0  0
  -17.1210  -26.4760   55.5080 O   0  0  0  0  0  1  0  0  0  0  0  0
  -19.5230  -27.4450   55.2990 N   0  0  0  0  0  0  0  0  0  0  0  0
  -20.0920  -26.1260   55.7290 C   0  0  0  0  0  0  0  0  0  0  0  0
  -19.3060  -24.8970   56.0780 N   0  0  0  0  0  0  0  0  0  0  0  0
  -20.2750  -23.8150   56.4500 N   0  0  0  0  0  0  0  0  0  0  0  0
  -21.6620  -24.3750   56.3290 C   0  0  0  0  0  0  0  0  0  0  0  0
  -23.0130  -23.7680   56.5680 N   0  0  0  0  0  0  0  0  0  0  0  0
  -24.2510  -24.5900   56.3610 N   0  0  0  0  0  0  0  0  0  0  0  0
  -24.1380  -26.0180   55.9160 C   0  0  0  0  0  0  0  0  0  0  0  0
  -22.7870  -26.6240   55.6770 C   0  0  0  0  0  0  0  0  0  0  0  0
  -21.5490  -25.8020   55.8840 C   0  0  0  0  0  0  0  0  0  0  0  0
  -20.1240  -28.1960   55.0900 H   0  0  0  0  0  0  0  0  0  0  0  0
  -20.0430  -22.8990   56.7240 H   0  0  0  0  0  0  0  0  0  0  0  0
  -22.7090  -27.6060   55.3700 H   0  0  0  0  0  0  0  0  0  0  0  0
  -16.3280  -31.5790   53.9000 N   0  0  0  0  0  1  0  0  0  0  0  0
  -17.1950  -30.7940   52.9600 C   0  0  0  0  0  2  0  0  0  0  0  0
  -17.7650  -29.4740   53.3900 C   0  0  0  0  0  2  0  0  0  0  0  0
  -17.4670  -28.9400   54.7590 C   0  0  0  0  0  1  0  0  0  0  0  0
  -16.6010  -29.7240   55.6990 C   0  0  0  0  0  2  0  0  0  0  0  0
  -16.0310  -31.0440   55.2700 C   0  0  0  0  0  2  0  0  0  0  0  0
  -17.4070  -31.1760   51.9830 H   0  0  0  0  0  0  0  0  0  0  0  0
  -17.8130  -30.2340   52.2900 H   0  0  0  0  0  0  0  0  0  0  0  0
  -18.3820  -28.9150   52.7190 H   0  0  0  0  0  0  0  0  0  0  0  0
  -18.1710  -28.5340   53.6960 H   0  0  0  0  0  0  0  0  0  0  0  0
  -17.2560  -28.5580   55.7370 H   0  0  0  0  0  0  0  0  0  0  0  0
  -16.3890  -29.3430   56.6760 H   0  0  0  0  0  0  0  0  0  0  0  0
  -15.9830  -30.2840   56.3700 H   0  0  0  0  0  0  0  0  0  0  0  0
  -15.4130  -31.6030   55.9400 H   0  0  0  0  0  0  0  0  0  0  0  0
  -15.6250  -31.9850   54.9620 H   0  0  0  0  0  0  0  0  0  0  0  0
  -15.7580  -32.8980   53.4710 C   0  0  0  0  0  0  0  0  0  0  0  0
  -15.9700  -33.2790   52.4940 H   0  0  0  0  0  0  0  0  0  0  0  0
  -15.1400  -33.4580   54.1400 H   0  0  0  0  0  0  0  0  0  0  0  0
  -15.3520  -33.8390   53.1630 H   0  0  0  0  0  0  0  0  0  0  0  0
  -25.3760  -26.8390   55.7090 C   0  0  0  0  0  0  0  0  0  0  0  0
  -26.7280  -26.2150   55.8850 C   0  0  0  0  0  0  0  0  0  0  0  0
  -27.9660  -27.0360   55.6780 C   0  0  0  0  0  0  0  0  0  0  0  0
  -27.8510  -28.4820   55.2950 C   0  0  0  0  0  0  0  0  0  0  0  0
  -26.4990  -29.1060   55.1190 C   0  0  0  0  0  0  0  0  0  0  0  0
  -25.2610  -28.2850   55.3250 C   0  0  0  0  0  0  0  0  0  0  0  0
  -26.8070  -25.2200   56.1490 H   0  0  0  0  0  0  0  0  0  0  0  0
  -28.8970  -26.6070   55.8000 H   0  0  0  0  0  0  0  0  0  0  0  0
  -28.7030  -29.0470   55.1530 H   0  0  0  0  0  0  0  0  0  0  0  0
  -26.4200  -30.1010   54.8550 H   0  0  0  0  0  0  0  0  0  0  0  0
  -24.3300  -28.7140   55.2040 H   0  0  0  0  0  0  0  0  0  0  0  0
  1  3  1  0
  1  2  1  0
  3  4  1  0
  4 12  1  0
  4  5  2  0
  5  6  1  0
  6 14  1  0
  7  6  1  0
  7  8  1  0
  9  8  2  0
 10  9  1  0
 11 12  1  0
 11 10  2  0
 12  7  2  0
 13  3  1  0
 15 11  1  0
 18 25  1  0
 19 26  1  0
 20 28  1  0
 20 27  1  0
 21 29  1  0
 22 17  1  0
 23 17  1  0
 24 18  1  0
 30 21  1  0
 31 16  1  0
 31 33  1  0
 32 31  1  0
 34 31  1  0
 35 36  1  0
 35 10  1  0
 36 41  1  0
 37 42  1  0
 37 36  2  0
 38 37  1  0
 39 38  2  0
 39 40  1  0
 40 35  2  0
 43 38  1  0
 44 39  1  0
 45 40  1  0
M  END
>  <minimizedAffinity>  (349) 
-9.21673775

$$$$

     RDKit          3D

 50 49  0  0  0  0  0  0  0  0999 V2000
  -18.4190  -31.4930   53.6580 C   0  0  0  0  0  0  0  0  0  0  0  0
  -19.6160  -31.3300   52.7680 C   0  0  0  0  0  0  0  0  0  0  0  0
  -20.7690  -30.4790   53.2100 C   0  0  0  0  0  0  0  0  0  0  0  0
  -20.7250  -29.7910   54.5420 C   0  0  0  0  0  0  0  0  0  0  0  0
  -19.5290  -29.9530   55.4320 C   0  0  0  0  0  0  0  0  0  0  0  0
  -18.3750  -30.8040   54.9890 C   0  0  0  0  0  0  0  0  0  0  0  0
  -19.6460  -31.8040   51.8510 H   0  0  0  0  0  0  0  0  0  0  0  0
  -21.5920  -30.3670   52.5980 H   0  0  0  0  0  0  0  0  0  0  0  0
  -19.4990  -29.4790   56.3480 H   0  0  0  0  0  0  0  0  0  0  0  0
  -17.1790  -30.9670   55.8790 C   0  0  0  0  0  0  0  0  0  0  0  0
  -17.1610  -32.0440   56.9230 C   0  0  0  0  0  0  0  0  0  0  0  0
  -15.9640  -32.2070   57.8120 C   0  0  0  0  0  0  0  0  0  0  0  0
  -14.7850  -31.2920   57.6580 C   0  0  0  0  0  0  0  0  0  0  0  0
  -14.8030  -30.2150   56.6150 C   0  0  0  0  0  0  0  0  0  0  0  0
  -16.0000  -30.0520   55.7250 C   0  0  0  0  0  0  0  0  0  0  0  0
  -17.9720  -32.6740   57.0280 H   0  0  0  0  0  0  0  0  0  0  0  0
  -15.9520  -32.9480   58.5300 H   0  0  0  0  0  0  0  0  0  0  0  0
  -13.9920  -29.5850   56.5090 H   0  0  0  0  0  0  0  0  0  0  0  0
  -16.0120  -29.3110   55.0070 H   0  0  0  0  0  0  0  0  0  0  0  0
  -13.5890  -31.4550   58.5480 C   0  0  0  0  0  0  0  0  0  0  0  0
  -13.7270  -31.2750   60.0310 O   0  0  0  0  0  0  0  0  0  0  0  0
  -12.2540  -31.7970   57.9550 N   0  0  0  0  0  4  0  0  0  0  0  0
  -12.1640  -31.9150   56.9820 H   0  0  0  0  0  0  0  0  0  0  0  0
  -11.0570  -31.9590   58.8450 C   0  0  0  0  0  0  0  0  0  0  0  0
  -10.9290  -32.8590   59.4090 H   0  0  0  0  0  0  0  0  0  0  0  0
  -10.2040  -32.0750   59.4790 H   0  0  0  0  0  0  0  0  0  0  0  0
  -10.0410  -30.8600   58.9430 C   0  0  0  0  0 15  0  0  0  0  0  0
   -9.1610  -29.9760   59.7750 C   0  0  0  0  0  2  0  0  0  0  0  0
   -9.1610  -29.8420   58.2810 C   0  0  0  0  0  3  0  0  0  0  0  0
   -9.3160  -30.0760   59.0130 H   0  0  0  0  0  0  0  0  0  0  0  0
   -8.7990  -29.6670   60.7340 H   0  0  0  0  0  0  0  0  0  0  0  0
   -8.4610  -29.1930   59.5670 H   0  0  0  0  0  0  0  0  0  0  0  0
   -8.7990  -29.3670   57.3940 H   0  0  0  0  0  0  0  0  0  0  0  0
   -9.6740  -30.3290   57.4790 H   0  0  0  0  0  0  0  0  0  0  0  0
  -17.2660  -32.3440   53.2150 C   0  0  0  0  0  0  0  0  0  0  0  0
  -17.2970  -32.8360   52.2650 H   0  0  0  0  0  0  0  0  0  0  0  0
  -16.4120  -32.4600   53.8500 H   0  0  0  0  0  0  0  0  0  0  0  0
  -16.4430  -32.9510   52.9000 H   0  0  0  0  0  0  0  0  0  0  0  0
  -21.8780  -28.9390   54.9840 N   0  0  0  0  0  0  0  0  0  0  0  0
  -21.7220  -27.4500   55.0680 C   0  0  0  0  0  0  0  0  0  0  0  0
  -20.4130  -26.8120   54.7090 O   0  0  0  0  0  0  0  0  0  0  0  0
  -22.7380  -29.3590   55.2190 H   0  0  0  0  0  0  0  0  0  0  0  0
  -22.8760  -26.5990   55.5100 C   0  0  0  0  0  0  0  0  0  0  0  0
  -24.3150  -27.0190   55.5580 C   0  0  0  0  0  0  0  0  0  0  0  0
  -25.1200  -25.8580   56.0600 C   0  0  0  0  0  0  0  0  0  0  0  0
  -24.1800  -24.7190   56.3210 O   0  0  0  0  0  0  0  0  0  0  0  0
  -22.7920  -25.1760   55.9820 C   0  0  0  0  0  0  0  0  0  0  0  0
  -24.6850  -27.9450   55.2930 H   0  0  0  0  0  0  0  0  0  0  0  0
  -26.1430  -25.8450   56.2000 H   0  0  0  0  0  0  0  0  0  0  0  0
  -21.9320  -24.6130   56.0590 H   0  0  0  0  0  0  0  0  0  0  0  0
  1  6  1  0
  2  3  1  0
  2  1  2  0
  3  4  2  0
  4 39  1  0
  4  5  1  0
  5  9  1  0
  6  5  2  0
  6 10  1  0
  7  2  1  0
  8  3  1  0
 10 11  1  0
 11 16  1  0
 11 12  2  0
 12 17  1  0
 13 12  1  0
 13 20  1  0
 14 13  2  0
 15 10  2  0
 15 14  1  0
 18 14  1  0
 19 15  1  0
 20 21  2  0
 22 20  1  0
 22 24  2  0
 23 22  1  0
 24 25  1  0
 24 26  1  0
 28 31  1  0
 29 30  1  0
 32 28  1  0
 33 29  1  0
 34 29  1  0
 35  1  1  0
 35 37  1  0
 36 35  1  0
 38 35  1  0
 39 40  1  0
 39 42  1  0
 40 43  1  0
 41 40  2  0
 43 44  1  0
 43 47  2  0
 44 45  2  0
 45 49  1  0
 45 46  1  0
 47 50  1  0
 47 46  1  0
 48 44  1  0
M  END
>  <minimizedAffinity>  (350) 
-8.87006664

$$$$

     RDKit          3D

 48 51  0  0  1  0  0  0  0  0999 V2000
  -15.1520  -30.9610   56.3050 N   0  0  0  0  0  0  0  0  0  0  0  0
  -15.9100  -32.0380   55.5870 N   0  0  0  0  0  0  0  0  0  0  0  0
  -16.8510  -31.3790   54.6230 C   0  0  0  0  0  0  0  0  0  0  0  0
  -16.6740  -29.8940   54.7450 C   0  0  0  0  0  0  0  0  0  0  0  0
  -17.3340  -28.7440   54.0450 C   0  0  0  0  0  3  0  0  0  0  0  0
  -16.9440  -27.3350   54.3830 N   0  0  0  0  0  0  0  0  0  0  0  0
  -15.8940  -27.0780   55.4230 C   0  0  0  0  0  0  0  0  0  0  0  0
  -15.2340  -28.2280   56.1240 N   0  0  0  0  0  2  0  0  0  0  0  0
  -15.6240  -29.6360   55.7850 C   0  0  0  0  0  0  0  0  0  0  0  0
  -17.5050  -31.8610   53.9870 H   0  0  0  0  0  0  0  0  0  0  0  0
  -15.6250  -26.1090   55.6560 H   0  0  0  0  0  0  0  0  0  0  0  0
  -11.6540  -31.7330   58.0140 C   0  0  0  0  0  0  0  0  0  0  0  0
  -12.0110  -31.5950   59.4640 C   0  0  0  0  0  0  0  0  0  0  0  0
  -13.4140  -31.2460   59.8620 C   0  0  0  0  0  0  0  0  0  0  0  0
  -14.4610  -31.0340   58.8090 C   0  0  0  0  0  0  0  0  0  0  0  0
  -14.1050  -31.1730   57.3580 C   0  0  0  0  0  0  0  0  0  0  0  0
  -12.7010  -31.5220   56.9610 C   0  0  0  0  0  0  0  0  0  0  0  0
  -11.2910  -31.7400   60.1890 H   0  0  0  0  0  0  0  0  0  0  0  0
  -13.6600  -31.1510   60.8600 H   0  0  0  0  0  0  0  0  0  0  0  0
  -15.4270  -30.7940   59.0820 H   0  0  0  0  0  0  0  0  0  0  0  0
  -12.4560  -31.6170   55.9630 H   0  0  0  0  0  0  0  0  0  0  0  0
  -10.2500  -32.0820   57.6170 O   0  0  0  0  0  0  0  0  0  0  0  0
   -9.3280  -31.0150   57.1070 C   0  0  0  0  0  0  0  0  0  0  0  0
   -9.6710  -30.0040   57.0270 H   0  0  0  0  0  0  0  0  0  0  0  0
   -8.3270  -31.2630   56.8230 H   0  0  0  0  0  0  0  0  0  0  0  0
   -8.6700  -30.2530   56.7430 H   0  0  0  0  0  0  0  0  0  0  0  0
  -18.3840  -29.0010   53.0050 N   0  0  0  0  0  0  0  0  0  0  0  0
  -18.1430  -29.4450   52.1600 H   0  0  0  0  0  0  0  0  0  0  0  0
  -19.8040  -28.5840   53.2530 N   0  0  0  0  0  0  0  0  0  0  0  0
  -20.3240  -28.4910   54.6570 C   0  0  0  0  0  0  0  0  0  0  0  0
  -19.7050  -28.7150   55.4520 H   0  0  0  0  0  0  0  0  0  0  0  0
  -21.7430  -28.0740   54.9050 C   0  0  0  0  0  0  0  0  0  0  0  0
  -22.8600  -29.0540   54.7000 C   0  0  0  0  0  0  0  0  0  0  0  0
  -24.2790  -28.6360   54.9480 C   0  0  0  0  0  0  0  0  0  0  0  0
  -24.5810  -27.2380   55.4010 C   0  0  0  0  0  0  0  0  0  0  0  0
  -23.4640  -26.2580   55.6060 C   0  0  0  0  0  0  0  0  0  0  0  0
  -22.0450  -26.6760   55.3580 C   0  0  0  0  0  0  0  0  0  0  0  0
  -22.6520  -30.0150   54.3880 H   0  0  0  0  0  0  0  0  0  0  0  0
  -25.0480  -29.3100   54.8070 H   0  0  0  0  0  0  0  0  0  0  0  0
  -23.6720  -25.2970   55.9180 H   0  0  0  0  0  0  0  0  0  0  0  0
  -21.2770  -26.0020   55.4990 H   0  0  0  0  0  0  0  0  0  0  0  0
  -26.0010  -26.8210   55.6490 S   0  0  2  0  0  0  0  0  0  0  0  0
  -25.5150  -25.5810   56.3390 O   0  0  0  0  0  0  0  0  0  0  0  0
  -26.4860  -28.0610   54.9590 O   0  0  0  0  0  0  0  0  0  0  0  0
  -27.4200  -26.4030   55.8970 C   0  0  0  0  0  0  0  0  0  0  0  0
  -28.2260  -27.0210   55.5590 H   0  0  0  0  0  0  0  0  0  0  0  0
  -27.6260  -25.4880   56.4120 H   0  0  0  0  0  0  0  0  0  0  0  0
  -28.4320  -26.1050   56.0740 H   0  0  0  0  0  0  0  0  0  0  0  0
  1 16  1  0
  2  1  1  0
  3  4  1  0
  3  2  2  0
  4  9  2  0
  5 27  1  0
  5  6  1  0
  5  4  1  0
  6  7  2  0
  7 11  1  0
  7  8  1  0
  9  8  1  0
  9  1  1  0
 10  3  1  0
 12 13  1  0
 13 14  2  0
 13 18  1  0
 14 19  1  0
 15 20  1  0
 15 14  1  0
 16 15  2  0
 17 16  1  0
 17 12  2  0
 21 17  1  0
 22 12  1  0
 23 22  1  0
 24 23  1  0
 25 23  1  0
 26 23  1  0
 27 29  1  0
 28 27  1  0
 29 30  2  0
 30 32  1  0
 30 31  1  0
 32 37  1  0
 33 32  2  0
 33 34  1  0
 34 35  2  0
 35 36  1  0
 35 42  1  0
 36 40  1  0
 37 41  1  0
 37 36  2  0
 38 33  1  0
 39 34  1  0
 42 45  1  0
 42 43  2  0
 44 42  2  0
 45 48  1  0
 45 47  1  0
 46 45  1  0
M  END
>  <minimizedAffinity>  (351) 
-8.38693905

$$$$

     RDKit          3D

 50 53  0  0  0  0  0  0  0  0999 V2000
  -19.6510  -27.9650   54.3740 N   0  0  0  0  0  0  0  0  0  0  0  0
  -20.0490  -26.7320   55.1290 C   0  0  0  0  0  0  0  0  0  0  0  0
  -19.1160  -25.6990   55.6860 C   0  0  0  0  0  0  0  0  0  0  0  0
  -17.6190  -25.7180   55.5860 O   0  0  0  0  0  0  0  0  0  0  0  0
  -19.9400  -24.6430   56.3610 N   0  0  0  0  0  0  0  0  0  0  0  0
  -21.3850  -25.0240   56.2210 C   0  0  0  0  0  0  0  0  0  0  0  0
  -22.6470  -24.3630   56.6880 C   0  0  0  0  0  0  0  0  0  0  0  0
  -23.9770  -24.9920   56.3940 C   0  0  0  0  0  0  0  0  0  0  0  0
  -24.0440  -26.2820   55.6330 C   0  0  0  0  0  0  0  0  0  0  0  0
  -22.7810  -26.9440   55.1650 C   0  0  0  0  0  0  0  0  0  0  0  0
  -21.4520  -26.3150   55.4600 C   0  0  0  0  0  0  0  0  0  0  0  0
  -19.5950  -23.8410   56.8160 H   0  0  0  0  0  0  0  0  0  0  0  0
  -22.6010  -23.4750   57.2120 H   0  0  0  0  0  0  0  0  0  0  0  0
  -24.8460  -24.5360   56.7160 H   0  0  0  0  0  0  0  0  0  0  0  0
  -22.8280  -27.8320   54.6420 H   0  0  0  0  0  0  0  0  0  0  0  0
  -25.3740  -26.9110   55.3390 C   0  0  0  0  0  0  0  0  0  0  0  0
  -25.4370  -28.2600   54.6840 O   0  0  0  0  0  0  0  0  0  0  0  0
  -26.6400  -26.1920   55.6990 N   0  0  0  0  0  0  0  0  0  0  0  0
  -26.5980  -25.3070   56.1280 H   0  0  0  0  0  0  0  0  0  0  0  0
  -27.9690  -26.8210   55.4050 C   0  0  0  0  0  0  0  0  0  0  0  0
  -28.4160  -26.7020   54.4390 H   0  0  0  0  0  0  0  0  0  0  0  0
  -28.9180  -27.2700   55.1950 H   0  0  0  0  0  0  0  0  0  0  0  0
  -28.6730  -27.6170   56.4630 C   0  0  0  0  0  0  0  0  0  0  0  0
  -29.9530  -27.1080   57.0580 C   0  0  0  0  0  0  0  0  0  0  0  0
  -30.6560  -27.9040   58.1170 C   0  0  0  0  0  0  0  0  0  0  0  0
  -30.0800  -29.2090   58.5810 N   0  0  0  0  0  0  0  0  0  0  0  0
  -28.8010  -29.7170   57.9870 C   0  0  0  0  0  0  0  0  0  0  0  0
  -28.0970  -28.9210   56.9280 C   0  0  0  0  0  0  0  0  0  0  0  0
  -30.3490  -26.2100   56.7380 H   0  0  0  0  0  0  0  0  0  0  0  0
  -31.5370  -27.5540   58.5250 H   0  0  0  0  0  0  0  0  0  0  0  0
  -28.4040  -30.6150   58.3070 H   0  0  0  0  0  0  0  0  0  0  0  0
  -27.2160  -29.2720   56.5190 H   0  0  0  0  0  0  0  0  0  0  0  0
  -18.2010  -28.2520   54.1180 N   0  0  0  0  0  0  0  0  0  0  0  0
  -17.7250  -27.7760   53.3990 H   0  0  0  0  0  0  0  0  0  0  0  0
  -16.0280  -31.2860   56.6330 C   0  0  0  0  0  0  0  0  0  0  0  0
  -17.4590  -31.5180   56.2470 C   0  0  0  0  0  0  0  0  0  0  0  0
  -18.1840  -30.5070   55.4080 C   0  0  0  0  0  0  0  0  0  0  0  0
  -17.4770  -29.2640   54.9570 C   0  0  0  0  0  0  0  0  0  0  0  0
  -16.0460  -29.0310   55.3430 C   0  0  0  0  0  0  0  0  0  0  0  0
  -15.3220  -30.0420   56.1810 C   0  0  0  0  0  0  0  0  0  0  0  0
  -17.9450  -32.3740   56.5580 H   0  0  0  0  0  0  0  0  0  0  0  0
  -19.1670  -30.6670   55.1430 H   0  0  0  0  0  0  0  0  0  0  0  0
  -15.5600  -28.1750   55.0320 H   0  0  0  0  0  0  0  0  0  0  0  0
  -14.3380  -29.8830   56.4470 H   0  0  0  0  0  0  0  0  0  0  0  0
  -15.3040  -32.2970   57.4710 S   0  0  2  0  0  0  0  0  0  0  0  0
  -14.0340  -31.5120   57.3190 O   0  0  0  0  0  0  0  0  0  0  0  0
  -16.5730  -33.0820   57.6230 O   0  0  0  0  0  0  0  0  0  0  0  0
  -14.5780  -33.3080   58.3100 N   0  0  0  0  0  0  0  0  0  0  0  0
  -13.5840  -33.1890   58.5050 H   0  0  0  0  0  0  0  0  0  0  0  0
  -15.0790  -34.1130   58.6840 H   0  0  0  0  0  0  0  0  0  0  0  0
  1  2  2  0
  2 11  1  0
  2  3  1  0
  3  5  1  0
  4  3  2  0
  5 12  1  0
  6  5  1  0
  6  7  1  0
  7 13  1  0
  8  7  2  0
  8 14  1  0
  9  8  1  0
 10 11  1  0
 10  9  2  0
 11  6  2  0
 15 10  1  0
 16  9  1  0
 16 18  1  0
 17 16  2  0
 18 19  1  0
 20 18  1  0
 20 23  1  0
 21 20  1  0
 22 20  1  0
 23 28  2  0
 23 24  1  0
 24 25  2  0
 25 30  1  0
 25 26  1  0
 27 31  1  0
 27 26  2  0
 28 27  1  0
 29 24  1  0
 32 28  1  0
 33  1  1  0
 33 38  1  0
 34 33  1  0
 35 45  1  0
 36 41  1  0
 36 35  1  0
 37 36  2  0
 38 39  2  0
 38 37  1  0
 39 40  1  0
 40 44  1  0
 40 35  2  0
 42 37  1  0
 43 39  1  0
 45 47  2  0
 45 48  1  0
 46 45  2  0
 48 49  1  0
 48 50  1  0
M  END
>  <minimizedAffinity>  (352) 
-9.84306335

$$$$

     RDKit          3D

 49 50  0  0  0  0  0  0  0  0999 V2000
  -18.3860  -27.5380   55.0130 C   0  0  0  0  0  0  0  0  0  0  0  0
  -19.0210  -28.8960   55.0690 C   0  0  0  0  0  0  0  0  0  0  0  0
  -18.1640  -30.1190   55.2050 C   0  0  0  0  0  0  0  0  0  0  0  0
  -16.6720  -29.9850   55.2840 C   0  0  0  0  0  0  0  0  0  0  0  0
  -16.0370  -28.6270   55.2280 C   0  0  0  0  0  0  0  0  0  0  0  0
  -16.8940  -27.4040   55.0920 C   0  0  0  0  0  0  0  0  0  0  0  0
  -20.0470  -28.9890   55.0140 H   0  0  0  0  0  0  0  0  0  0  0  0
  -18.6010  -31.0540   55.2430 H   0  0  0  0  0  0  0  0  0  0  0  0
  -15.0110  -28.5350   55.2830 H   0  0  0  0  0  0  0  0  0  0  0  0
  -15.8150  -31.2090   55.4200 C   0  0  0  0  0  0  0  0  0  0  0  0
  -15.8430  -31.9680   54.6660 H   0  0  0  0  0  0  0  0  0  0  0  0
  -15.2030  -32.0810   55.5170 H   0  0  0  0  0  0  0  0  0  0  0  0
  -14.9180  -31.3670   56.6110 C   0  0  0  0  0  0  0  0  0  0  0  0
  -15.5100  -31.5900   57.9720 C   0  0  0  0  0  0  0  0  0  0  0  0
  -14.6130  -31.7490   59.1630 N   0  0  0  0  0  0  0  0  0  0  0  0
  -13.1240  -31.6850   58.9950 C   0  0  0  0  0  0  0  0  0  0  0  0
  -12.2270  -31.8440   60.1860 N   0  0  0  0  0  0  0  0  0  0  0  0
  -12.5320  -31.4630   57.6350 N   0  0  0  0  0  0  0  0  0  0  0  0
  -13.4290  -31.3040   56.4430 C   0  0  0  0  0  0  0  0  0  0  0  0
  -12.8360  -31.0820   55.0830 N   0  0  0  0  0  0  0  0  0  0  0  0
  -16.5340  -31.6330   58.0870 H   0  0  0  0  0  0  0  0  0  0  0  0
  -12.6150  -31.9900   61.0790 H   0  0  0  0  0  0  0  0  0  0  0  0
  -11.2500  -31.8030   60.0760 H   0  0  0  0  0  0  0  0  0  0  0  0
  -11.8600  -31.0400   54.9720 H   0  0  0  0  0  0  0  0  0  0  0  0
  -13.4250  -30.9770   54.3000 H   0  0  0  0  0  0  0  0  0  0  0  0
  -19.2430  -26.3150   54.8770 O   0  0  0  0  0  1  0  0  0  0  0  0
  -20.0270  -25.8140   56.0540 C   0  0  0  0  0  3  0  0  0  0  0  0
  -19.5160  -25.4280   56.9120 H   0  0  0  0  0  0  0  0  0  0  0  0
  -18.9570  -25.7860   56.0720 H   0  0  0  0  0  0  0  0  0  0  0  0
  -24.5250  -25.9310   55.9760 C   0  0  0  0  0  0  0  0  0  0  0  0
  -23.7360  -27.1520   55.6090 C   0  0  0  0  0  0  0  0  0  0  0  0
  -22.2370  -27.1130   55.6340 C   0  0  0  0  0  0  0  0  0  0  0  0
  -21.5260  -25.8530   56.0280 C   0  0  0  0  0  0  0  0  0  0  0  0
  -22.3150  -24.6310   56.3950 C   0  0  0  0  0  0  0  0  0  0  0  0
  -23.8140  -24.6700   56.3690 C   0  0  0  0  0  0  0  0  0  0  0  0
  -24.2250  -28.0200   55.3380 H   0  0  0  0  0  0  0  0  0  0  0  0
  -21.6940  -27.9540   55.3820 H   0  0  0  0  0  0  0  0  0  0  0  0
  -21.8260  -23.7630   56.6660 H   0  0  0  0  0  0  0  0  0  0  0  0
  -24.3560  -23.8290   56.6220 H   0  0  0  0  0  0  0  0  0  0  0  0
  -26.0240  -25.9700   55.9500 O   0  0  0  0  0  0  0  0  0  0  0  0
  -26.7350  -27.2340   55.5670 C   0  0  0  0  0  0  0  0  0  0  0  0
  -26.1720  -28.1080   55.3120 H   0  0  0  0  0  0  0  0  0  0  0  0
  -27.8040  -27.2610   55.5480 H   0  0  0  0  0  0  0  0  0  0  0  0
  -27.2420  -28.1360   55.2930 H   0  0  0  0  0  0  0  0  0  0  0  0
  -16.2600  -26.0460   55.0360 O   0  0  0  0  0  0  0  0  0  0  0  0
  -15.2060  -25.6680   56.0350 C   0  0  0  0  0  0  0  0  0  0  0  0
  -14.9080  -26.3680   56.7880 H   0  0  0  0  0  0  0  0  0  0  0  0
  -14.7530  -24.6990   55.9950 H   0  0  0  0  0  0  0  0  0  0  0  0
  -14.4550  -25.3990   56.7480 H   0  0  0  0  0  0  0  0  0  0  0  0
  1  2  2  0
  1  6  1  0
  2  3  1  0
  3  8  1  0
  3  4  2  0
  4 10  1  0
  5  9  1  0
  5  4  1  0
  6  5  2  0
  7  2  1  0
 10 12  1  0
 10 13  1  0
 11 10  1  0
 13 14  2  0
 14 21  1  0
 14 15  1  0
 16 15  2  0
 16 17  1  0
 17 22  1  0
 18 16  1  0
 19 13  1  0
 19 18  2  0
 20 19  1  0
 23 17  1  0
 24 20  1  0
 25 20  1  0
 26  1  1  0
 27 29  1  0
 27 28  1  0
 30 35  1  0
 31 32  1  0
 31 30  2  0
 32 33  2  0
 33 27  1  0
 33 34  1  0
 34 38  1  0
 35 34  2  0
 35 39  1  0
 36 31  1  0
 37 32  1  0
 40 30  1  0
 41 40  1  0
 42 41  1  0
 43 41  1  0
 44 41  1  0
 45  6  1  0
 45 46  1  0
 46 49  1  0
 46 47  1  0
 48 46  1  0
M  END
>  <minimizedAffinity>  (353) 
-10.7647953

$$$$

     RDKit          3D

 46 49  0  0  1  0  0  0  0  0999 V2000
  -15.8440  -30.5590   55.4960 N   0  0  0  0  0  0  0  0  0  0  0  0
  -16.4310  -29.1860   55.6340 C   0  0  0  0  0  3  0  0  0  0  0  0
  -15.5290  -27.9910   55.7290 N   0  0  0  0  0  0  0  0  0  0  0  0
  -16.1160  -26.6170   55.8670 C   0  0  0  0  0  0  0  0  0  0  0  0
  -17.6050  -26.4390   55.9110 N   0  0  0  0  0  2  0  0  0  0  0  0
  -18.5070  -27.6340   55.8160 C   0  0  0  0  0  0  0  0  0  0  0  0
  -17.9200  -29.0070   55.6770 C   0  0  0  0  0  0  0  0  0  0  0  0
  -19.0510  -29.9900   55.6060 C   0  0  0  0  0  0  0  0  0  0  0  0
  -20.3370  -29.2240   55.7000 N   0  0  0  0  0  0  0  0  0  0  0  0
  -20.0000  -27.7680   55.8300 N   0  0  0  0  0  0  0  0  0  0  0  0
  -16.4360  -31.3440   55.4330 H   0  0  0  0  0  0  0  0  0  0  0  0
  -15.4960  -25.7950   55.9330 H   0  0  0  0  0  0  0  0  0  0  0  0
  -18.9600  -31.0130   55.5090 H   0  0  0  0  0  0  0  0  0  0  0  0
  -20.9850  -26.6420   55.9520 C   0  0  0  0  0  0  0  0  0  0  0  0
  -20.5340  -25.3020   56.4500 C   0  0  0  0  0  0  0  0  0  0  0  0
  -21.5190  -24.1760   56.5730 C   0  0  0  0  0  0  0  0  0  0  0  0
  -22.9540  -24.3930   56.1970 C   0  0  0  0  0  0  0  0  0  0  0  0
  -23.4060  -25.7340   55.6980 C   0  0  0  0  0  0  0  0  0  0  0  0
  -22.4210  -26.8590   55.5760 C   0  0  0  0  0  0  0  0  0  0  0  0
  -19.5460  -25.1530   56.7090 H   0  0  0  0  0  0  0  0  0  0  0  0
  -21.2080  -23.2540   56.9150 H   0  0  0  0  0  0  0  0  0  0  0  0
  -23.6320  -23.6190   56.2810 H   0  0  0  0  0  0  0  0  0  0  0  0
  -22.7320  -27.7810   55.2330 H   0  0  0  0  0  0  0  0  0  0  0  0
  -24.8420  -25.9500   55.3220 O   0  0  0  0  0  0  0  0  0  0  0  0
  -25.4310  -27.3290   55.3750 C   0  0  0  0  0  0  0  0  0  0  0  0
  -24.8270  -28.1580   55.6800 H   0  0  0  0  0  0  0  0  0  0  0  0
  -26.4550  -27.4840   55.1070 H   0  0  0  0  0  0  0  0  0  0  0  0
  -25.8520  -28.3120   55.4120 H   0  0  0  0  0  0  0  0  0  0  0  0
  -13.6270  -31.2600   56.6550 C   0  0  0  0  0  0  0  0  0  0  0  0
  -14.3550  -30.7380   55.4530 N   0  0  0  0  0  0  0  0  0  0  0  0
  -14.1510  -31.4970   57.5130 H   0  0  0  0  0  0  0  0  0  0  0  0
   -9.9050  -31.4000   55.2850 C   0  0  0  0  0  0  0  0  0  0  0  0
   -9.1610  -31.7960   56.5260 C   0  0  0  0  0  0  0  0  0  0  0  0
   -9.9060  -32.0130   57.8100 C   0  0  0  0  0  0  0  0  0  0  0  0
  -11.3940  -31.8340   57.8530 C   0  0  0  0  0  0  0  0  0  0  0  0
  -12.1390  -31.4390   56.6120 C   0  0  0  0  0  0  0  0  0  0  0  0
  -11.3940  -31.2220   55.3280 C   0  0  0  0  0  0  0  0  0  0  0  0
   -8.1370  -31.9190   56.4960 H   0  0  0  0  0  0  0  0  0  0  0  0
   -9.3940  -32.2850   58.6640 H   0  0  0  0  0  0  0  0  0  0  0  0
  -11.9070  -31.9840   58.7370 H   0  0  0  0  0  0  0  0  0  0  0  0
  -11.9060  -30.9490   54.4740 H   0  0  0  0  0  0  0  0  0  0  0  0
   -9.1610  -31.1830   54.0010 O   0  0  0  0  0  0  0  0  0  0  0  0
   -9.9000  -31.1850   52.6960 C   0  0  0  0  0  0  0  0  0  0  0  0
  -10.9590  -31.3410   52.6810 H   0  0  0  0  0  0  0  0  0  0  0  0
   -9.3690  -31.0300   51.7800 H   0  0  0  0  0  0  0  0  0  0  0  0
  -10.4280  -31.1860   51.7650 H   0  0  0  0  0  0  0  0  0  0  0  0
  2  1  1  0
  2  7  1  0
  2  3  1  0
  3  4  2  0
  4  5  1  0
  4 12  1  0
  6 10  1  0
  6  5  1  0
  7  6  2  0
  8  7  1  0
  8  9  2  0
  9 10  1  0
 10 14  1  0
 11  1  1  0
 13  8  1  0
 14 15  1  0
 15 16  2  0
 15 20  1  0
 16 21  1  0
 17 22  1  0
 17 16  1  0
 18 17  2  0
 19 18  1  0
 19 14  2  0
 23 19  1  0
 24 25  1  0
 24 18  1  0
 25 28  1  0
 25 26  1  0
 27 25  1  0
 29 31  1  0
 30  1  1  0
 30 29  2  0
 32 37  2  0
 32 33  1  0
 33 34  2  0
 34 35  1  0
 34 39  1  0
 35 40  1  0
 36 29  1  0
 36 35  2  0
 37 36  1  0
 38 33  1  0
 41 37  1  0
 42 32  1  0
 43 42  1  0
 44 43  1  0
 45 43  1  0
 46 43  1  0
M  END
>  <minimizedAffinity>  (354) 
-8.46243954

$$$$

     RDKit          3D

 43 37  0  0  0  0  0  0  0  0999 V2000
  -20.2780  -27.3310   54.8520 N   0  0  0  0  0 15  0  0  0  0  0  0
  -20.7190  -26.2460   55.7890 C   0  0  0  0  0  2  0  0  0  0  0  0
  -19.5080  -25.7340   56.5110 N   0  0  0  0  0  2  0  0  0  0  0  0
  -18.3170  -26.5020   56.0190 C   0  0  0  0  0  0  0  0  0  0  0  0
  -16.8610  -26.4310   56.3720 C   0  0  0  0  0  0  0  0  0  0  0  0
  -15.8800  -27.3460   55.7010 N   0  0  0  0  0  0  0  0  0  0  0  0
  -16.3560  -28.3330   54.6760 C   0  0  0  0  0  0  0  0  0  0  0  0
  -17.8120  -28.4040   54.3230 C   0  0  0  0  0  0  0  0  0  0  0  0
  -18.7920  -27.4890   54.9940 C   0  0  0  0  0  3  0  0  0  0  0  0
  -16.5340  -25.7520   57.0770 H   0  0  0  0  0  0  0  0  0  0  0  0
  -15.6810  -28.9620   54.2140 H   0  0  0  0  0  0  0  0  0  0  0  0
  -18.2870  -29.3910   53.2980 C   0  0  0  0  0  0  0  0  0  0  0  0
  -18.7740  -28.9100   51.9630 O   0  0  0  0  0  0  0  0  0  0  0  0
  -18.2750  -30.8580   53.6080 N   0  0  0  0  0  1  0  0  0  0  0  0
  -18.7180  -31.9580   52.6880 C   0  0  0  0  0  2  0  0  0  0  0  0
  -18.5350  -33.2630   53.4040 C   0  0  0  0  0  2  0  0  0  0  0  0
  -17.9800  -32.9710   54.7660 C   0  0  0  0  0  1  0  0  0  0  0  0
  -17.8190  -31.4850   54.8920 C   0  0  0  0  0  2  0  0  0  0  0  0
  -19.0980  -31.8330   51.6960 H   0  0  0  0  0  0  0  0  0  0  0  0
  -18.9920  -32.8450   52.1580 H   0  0  0  0  0  0  0  0  0  0  0  0
  -18.7610  -34.2320   53.0110 H   0  0  0  0  0  0  0  0  0  0  0  0
  -18.3480  -34.1020   54.0420 H   0  0  0  0  0  0  0  0  0  0  0  0
  -18.1520  -33.9980   54.5220 H   0  0  0  0  0  0  0  0  0  0  0  0
  -17.4440  -30.9630   55.7490 H   0  0  0  0  0  0  0  0  0  0  0  0
  -17.7650  -30.4190   54.8260 H   0  0  0  0  0  0  0  0  0  0  0  0
  -17.6440  -33.9870   55.8180 N   0  0  0  0  0  2  0  0  0  0  0  0
  -17.2690  -33.6850   56.7170 H   0  0  0  0  0  0  0  0  0  0  0  0
  -17.7900  -34.9790   55.6330 H   0  0  0  0  0  0  0  0  0  0  0  0
  -22.1260  -25.7590   55.9730 C   0  0  0  0  0  0  0  0  0  0  0  0
  -23.3660  -26.6020   55.9140 N   0  0  0  0  0  0  0  0  0  0  0  0
  -24.5460  -25.7070   56.1520 O   0  0  0  0  0  0  0  0  0  0  0  0
  -24.0360  -24.3120   56.3580 N   0  0  0  0  0  0  0  0  0  0  0  0
  -22.5400  -24.3430   56.2470 C   0  0  0  0  0  0  0  0  0  0  0  0
  -21.6210  -23.1670   56.3860 N   0  0  0  0  0  0  0  0  0  0  0  0
  -20.6480  -23.2890   56.2960 H   0  0  0  0  0  0  0  0  0  0  0  0
  -21.9890  -22.2720   56.5670 H   0  0  0  0  0  0  0  0  0  0  0  0
  -21.1640  -28.1190   53.9340 C   0  0  0  0  0  3  0  0  0  0  0  0
  -21.3980  -27.7400   52.9610 H   0  0  0  0  0  0  0  0  0  0  0  0
  -20.7650  -27.1780   53.6160 H   0  0  0  0  0  0  0  0  0  0  0  0
  -21.7230  -29.4370   54.3800 C   0  0  0  0  0  0  0  0  0  0  0  0
  -21.4890  -29.8150   55.3530 H   0  0  0  0  0  0  0  0  0  0  0  0
  -22.3550  -29.9990   53.7250 H   0  0  0  0  0  0  0  0  0  0  0  0
  -22.1220  -30.3770   54.6980 H   0  0  0  0  0  0  0  0  0  0  0  0
  2 29  1  0
  2  3  1  0
  4  5  1  0
  4  3  1  0
  5 10  1  0
  6  5  2  0
  7  6  1  0
  8  7  2  0
  8  9  1  0
  9  4  2  0
 11  7  1  0
 12 14  1  0
 12  8  1  0
 13 12  2  0
 16 22  1  0
 18 24  1  0
 19 15  1  0
 20 15  1  0
 21 16  1  0
 23 17  1  0
 25 18  1  0
 26 27  1  0
 28 26  1  0
 29 33  1  0
 30 29  2  0
 30 31  1  0
 31 32  1  0
 33 32  2  0
 33 34  1  0
 34 36  1  0
 35 34  1  0
 37 40  1  0
 38 37  1  0
 39 37  1  0
 40 43  1  0
 40 41  1  0
 42 40  1  0
M  END
>  <minimizedAffinity>  (355) 
-8.36189842

$$$$

     RDKit          3D

 36 39  0  0  1  0  0  0  0  0999 V2000
  -18.5640  -29.2040   54.5970 N   0  0  0  0  0  4  0  0  0  0  0  0
  -18.8470  -29.5840   53.7340 H   0  0  0  0  0  0  0  0  0  0  0  0
  -21.3310  -30.2170   54.1120 O   0  0  0  0  0  0  0  0  0  0  0  0
  -21.6780  -28.8700   54.6730 C   0  0  0  0  0  0  0  0  0  0  0  0
  -23.0620  -28.3280   54.8730 N   0  0  0  0  0  0  0  0  0  0  0  0
  -22.9410  -26.9510   55.4560 C   0  0  0  0  0  0  0  0  0  0  0  0
  -23.9710  -25.9390   55.8620 C   0  0  0  0  0  0  0  0  0  0  0  0
  -23.5420  -24.6180   56.4280 C   0  0  0  0  0  0  0  0  0  0  0  0
  -22.0830  -24.3090   56.5890 C   0  0  0  0  0  0  0  0  0  0  0  0
  -21.0530  -25.3210   56.1830 C   0  0  0  0  0  0  0  0  0  0  0  0
  -21.4820  -26.6420   55.6170 C   0  0  0  0  0  0  0  0  0  0  0  0
  -20.7010  -27.8280   55.1330 C   0  0  0  0  0  3  0  0  0  0  0  0
  -19.2060  -27.9510   55.1120 C   0  0  0  0  0  0  0  0  0  0  0  0
  -23.9020  -28.7940   54.6590 H   0  0  0  0  0  0  0  0  0  0  0  0
  -24.9750  -26.1510   55.7520 H   0  0  0  0  0  0  0  0  0  0  0  0
  -24.2510  -23.9210   56.7070 H   0  0  0  0  0  0  0  0  0  0  0  0
  -21.7880  -23.4000   56.9790 H   0  0  0  0  0  0  0  0  0  0  0  0
  -20.0490  -25.1090   56.2940 H   0  0  0  0  0  0  0  0  0  0  0  0
  -18.6200  -27.1730   55.4530 H   0  0  0  0  0  0  0  0  0  0  0  0
  -17.4880  -29.8790   55.3960 C   0  0  0  0  0  0  0  0  0  0  0  0
  -17.7960  -31.1360   56.1550 C   0  0  0  0  0  0  0  0  0  0  0  0
  -16.7210  -31.8110   56.9540 C   0  0  0  0  0  0  0  0  0  0  0  0
  -15.3390  -31.2300   56.9940 C   0  0  0  0  0  0  0  0  0  0  0  0
  -15.0310  -29.9730   56.2350 C   0  0  0  0  0  0  0  0  0  0  0  0
  -16.1070  -29.2980   55.4360 C   0  0  0  0  0  0  0  0  0  0  0  0
  -18.7470  -31.5360   56.1280 H   0  0  0  0  0  0  0  0  0  0  0  0
  -16.9330  -32.6760   57.4760 H   0  0  0  0  0  0  0  0  0  0  0  0
  -14.0800  -29.5740   56.2630 H   0  0  0  0  0  0  0  0  0  0  0  0
  -15.8950  -28.4330   54.9140 H   0  0  0  0  0  0  0  0  0  0  0  0
  -14.2640  -31.9050   57.7930 N   0  0  0  0  0  0  0  0  0  0  0  0
  -13.9560  -33.3730   57.7950 C   0  0  0  0  0  3  0  0  0  0  0  0
  -12.8090  -33.6050   58.7340 N   0  0  0  0  0  0  0  0  0  0  0  0
  -12.4090  -32.2810   59.3120 C   0  0  0  0  0  0  0  0  0  0  0  0
  -13.3070  -31.2300   58.7310 N   0  0  0  0  0  2  0  0  0  0  0  0
  -14.4470  -34.0960   57.2460 H   0  0  0  0  0  0  0  0  0  0  0  0
  -11.6480  -32.1210   59.9910 H   0  0  0  0  0  0  0  0  0  0  0  0
  1 13  2  0
  1 20  1  0
  2  1  1  0
  3  4  2  0
  4  5  1  0
  4 12  1  0
  5  6  1  0
  6 11  2  0
  6  7  1  0
  7  8  2  0
  8  9  1  0
  8 16  1  0
  9 17  1  0
 10 18  1  0
 10  9  2  0
 11 10  1  0
 12 13  1  0
 12 11  1  0
 13 19  1  0
 14  5  1  0
 15  7  1  0
 20 25  2  0
 20 21  1  0
 21 22  2  0
 22 23  1  0
 22 27  1  0
 23 30  1  0
 24 28  1  0
 24 23  2  0
 25 24  1  0
 26 21  1  0
 29 25  1  0
 30 31  1  0
 30 34  1  0
 31 32  1  0
 32 33  2  0
 33 36  1  0
 34 33  1  0
 35 31  1  0
M  END
>  <minimizedAffinity>  (356) 
-8.23650837

$$$$

     RDKit          3D

 51 45  0  0  0  0  0  0  0  0999 V2000
  -18.0450  -30.0030   54.4000 C   0  0  0  0  0  2  0  0  0  0  0  0
  -18.9430  -31.0920   53.8930 O   0  0  0  0  0  1  0  0  0  0  0  0
  -16.8570  -30.3440   55.2490 N   0  0  0  0  0  0  0  0  0  0  0  0
  -16.5670  -31.7750   55.5920 C   0  0  0  0  0  0  0  0  0  0  0  0
  -17.3700  -32.9660   55.1610 N   0  0  0  0  0  0  0  0  0  0  0  0
  -16.7230  -34.1940   55.7290 N   0  0  0  0  0  0  0  0  0  0  0  0
  -15.5180  -33.7610   56.5120 C   0  0  0  0  0  0  0  0  0  0  0  0
  -14.4960  -34.5360   57.2910 N   0  0  0  0  0  0  0  0  0  0  0  0
  -13.3790  -33.8160   57.9850 N   0  0  0  0  0  0  0  0  0  0  0  0
  -13.2820  -32.3210   57.9000 C   0  0  0  0  0  0  0  0  0  0  0  0
  -14.3040  -31.5470   57.1210 C   0  0  0  0  0  0  0  0  0  0  0  0
  -15.4220  -32.2670   56.4270 C   0  0  0  0  0  0  0  0  0  0  0  0
  -16.2670  -29.6290   55.5810 H   0  0  0  0  0  0  0  0  0  0  0  0
  -17.0330  -35.1200   55.6100 H   0  0  0  0  0  0  0  0  0  0  0  0
  -14.2370  -30.5190   57.0630 H   0  0  0  0  0  0  0  0  0  0  0  0
  -12.1640  -31.6010   58.5940 C   0  0  0  0  0  0  0  0  0  0  0  0
  -10.7850  -31.6120   58.0050 C   0  0  0  0  0  0  0  0  0  0  0  0
   -9.6670  -30.8920   58.6990 C   0  0  0  0  0  0  0  0  0  0  0  0
   -9.9280  -30.1610   59.9820 C   0  0  0  0  0  0  0  0  0  0  0  0
  -11.3080  -30.1500   60.5720 C   0  0  0  0  0  0  0  0  0  0  0  0
  -11.5690  -29.4190   61.8550 F   0  0  0  0  0  0  0  0  0  0  0  0
  -12.4260  -30.8700   59.8780 C   0  0  0  0  0  0  0  0  0  0  0  0
  -13.8050  -30.8590   60.4670 F   0  0  0  0  0  0  0  0  0  0  0  0
  -10.6050  -32.1150   57.1220 H   0  0  0  0  0  0  0  0  0  0  0  0
   -8.7180  -30.9000   58.2930 H   0  0  0  0  0  0  0  0  0  0  0  0
   -9.1590  -29.6660   60.4600 H   0  0  0  0  0  0  0  0  0  0  0  0
  -18.3350  -28.5710   54.0560 C   0  0  0  0  0  2  0  0  0  0  0  0
  -17.6570  -28.0220   53.4360 H   0  0  0  0  0  0  0  0  0  0  0  0
  -17.4500  -29.0430   53.6820 H   0  0  0  0  0  0  0  0  0  0  0  0
  -22.0570  -26.5910   55.6290 N   0  0  0  0  0 15  0  0  0  0  0  0
  -22.1280  -27.4600   54.4080 C   0  0  0  0  0  2  0  0  0  0  0  0
  -20.8880  -28.1200   53.8840 C   0  0  0  0  0  2  0  0  0  0  0  0
  -19.5750  -27.9110   54.5810 C   0  0  0  0  0  1  0  0  0  0  0  0
  -19.5050  -27.0420   55.8010 C   0  0  0  0  0  2  0  0  0  0  0  0
  -20.7450  -26.3830   56.3250 C   0  0  0  0  0  2  0  0  0  0  0  0
  -23.0650  -27.6090   53.9110 H   0  0  0  0  0  0  0  0  0  0  0  0
  -22.1790  -28.0800   53.5380 H   0  0  0  0  0  0  0  0  0  0  0  0
  -20.9380  -28.7400   53.0130 H   0  0  0  0  0  0  0  0  0  0  0  0
  -20.0030  -28.5910   53.5100 H   0  0  0  0  0  0  0  0  0  0  0  0
  -18.6390  -27.7620   55.0770 H   0  0  0  0  0  0  0  0  0  0  0  0
  -18.5680  -26.8930   56.2980 H   0  0  0  0  0  0  0  0  0  0  0  0
  -19.4540  -26.4230   56.6720 H   0  0  0  0  0  0  0  0  0  0  0  0
  -20.6940  -25.7630   57.1960 H   0  0  0  0  0  0  0  0  0  0  0  0
  -21.6310  -25.9120   56.7000 H   0  0  0  0  0  0  0  0  0  0  0  0
  -23.2980  -25.9320   56.1530 C   0  0  0  0  0  3  0  0  0  0  0  0
  -24.0760  -26.5240   56.5880 H   0  0  0  0  0  0  0  0  0  0  0  0
  -23.1910  -26.9950   56.2140 H   0  0  0  0  0  0  0  0  0  0  0  0
  -23.4480  -24.4410   56.0680 C   0  0  0  0  0  0  0  0  0  0  0  0
  -22.6700  -23.8490   55.6330 H   0  0  0  0  0  0  0  0  0  0  0  0
  -24.3340  -23.9710   56.4420 H   0  0  0  0  0  0  0  0  0  0  0  0
  -23.5560  -23.3790   56.0080 H   0  0  0  0  0  0  0  0  0  0  0  0
  1  3  1  0
  2  1  1  0
  3 13  1  0
  3  4  1  0
  4 12  1  0
  5  4  2  0
  5  6  1  0
  6  7  1  0
  7  8  1  0
  8  9  2  0
 10  9  1  0
 10 16  1  0
 11 10  2  0
 12  7  2  0
 12 11  1  0
 14  6  1  0
 15 11  1  0
 16 22  1  0
 17 16  2  0
 17 18  1  0
 18 19  2  0
 19 26  1  0
 19 20  1  0
 20 21  1  0
 22 23  1  0
 22 20  2  0
 24 17  1  0
 25 18  1  0
 28 27  1  0
 29 27  1  0
 33 40  1  0
 34 41  1  0
 34 42  1  0
 35 44  1  0
 35 43  1  0
 36 31  1  0
 37 31  1  0
 38 32  1  0
 39 32  1  0
 45 47  1  0
 45 46  1  0
 48 45  1  0
 48 50  1  0
 49 48  1  0
 51 48  1  0
M  END
>  <minimizedAffinity>  (357) 
-10.5313473

$$$$

     RDKit          3D

 45 48  0  0  1  0  0  0  0  0999 V2000
  -20.5280  -27.5690   55.7280 N   0  0  0  0  0  0  0  0  0  0  0  0
  -20.7460  -29.0510   55.6530 N   0  0  0  0  0  0  0  0  0  0  0  0
  -19.4150  -29.7050   55.4290 C   0  0  0  0  0  0  0  0  0  0  0  0
  -18.3740  -28.6270   55.3660 C   0  0  0  0  0  0  0  0  0  0  0  0
  -16.8880  -28.6770   55.1640 C   0  0  0  0  0  3  0  0  0  0  0  0
  -16.0900  -27.4070   55.1480 N   0  0  0  0  0  0  0  0  0  0  0  0
  -16.7780  -26.0870   55.3330 C   0  0  0  0  0  0  0  0  0  0  0  0
  -18.2640  -26.0370   55.5350 N   0  0  0  0  0  2  0  0  0  0  0  0
  -19.0620  -27.3070   55.5510 C   0  0  0  0  0  0  0  0  0  0  0  0
  -19.2450  -30.7180   55.3340 H   0  0  0  0  0  0  0  0  0  0  0  0
  -16.2290  -25.2120   55.3220 H   0  0  0  0  0  0  0  0  0  0  0  0
  -24.0920  -25.8330   55.9170 C   0  0  0  0  0  0  0  0  0  0  0  0
  -23.7120  -24.4560   56.3730 C   0  0  0  0  0  0  0  0  0  0  0  0
  -22.2720  -24.1160   56.6150 C   0  0  0  0  0  0  0  0  0  0  0  0
  -21.2100  -25.1540   56.4000 C   0  0  0  0  0  0  0  0  0  0  0  0
  -21.5890  -26.5310   55.9430 C   0  0  0  0  0  0  0  0  0  0  0  0
  -23.0300  -26.8710   55.7020 C   0  0  0  0  0  0  0  0  0  0  0  0
  -24.4420  -23.7420   56.5210 H   0  0  0  0  0  0  0  0  0  0  0  0
  -22.0100  -23.1680   56.9280 H   0  0  0  0  0  0  0  0  0  0  0  0
  -20.2190  -24.9200   56.5660 H   0  0  0  0  0  0  0  0  0  0  0  0
  -23.2910  -27.8190   55.3880 H   0  0  0  0  0  0  0  0  0  0  0  0
  -25.5330  -26.1740   55.6750 O   0  0  0  0  0  0  0  0  0  0  0  0
  -25.9280  -27.5890   55.3710 C   0  0  0  0  0  0  0  0  0  0  0  0
  -25.1820  -28.3550   55.3260 H   0  0  0  0  0  0  0  0  0  0  0  0
  -26.9550  -27.8320   55.1990 H   0  0  0  0  0  0  0  0  0  0  0  0
  -26.2100  -28.5980   55.1540 H   0  0  0  0  0  0  0  0  0  0  0  0
  -16.2000  -29.9970   54.9790 N   0  0  0  0  0  0  0  0  0  0  0  0
  -16.6460  -30.7190   54.4790 H   0  0  0  0  0  0  0  0  0  0  0  0
  -14.8330  -30.2180   55.5560 N   0  0  0  0  0  0  0  0  0  0  0  0
  -14.6300  -31.2450   56.6300 C   0  0  0  0  0  0  0  0  0  0  0  0
  -15.4300  -31.7990   56.9730 H   0  0  0  0  0  0  0  0  0  0  0  0
  -13.2630  -31.4660   57.2070 C   0  0  0  0  0  0  0  0  0  0  0  0
  -12.0560  -31.4080   56.3190 C   0  0  0  0  0  0  0  0  0  0  0  0
  -10.6890  -31.6290   56.8960 C   0  0  0  0  0  0  0  0  0  0  0  0
  -10.5290  -31.9070   58.3610 C   0  0  0  0  0  0  0  0  0  0  0  0
  -11.7360  -31.9650   59.2500 C   0  0  0  0  0  0  0  0  0  0  0  0
  -13.1030  -31.7440   58.6730 C   0  0  0  0  0  0  0  0  0  0  0  0
  -12.1650  -31.2170   55.3110 H   0  0  0  0  0  0  0  0  0  0  0  0
   -9.8580  -31.5900   56.2850 H   0  0  0  0  0  0  0  0  0  0  0  0
  -11.6270  -32.1560   60.2580 H   0  0  0  0  0  0  0  0  0  0  0  0
  -13.9340  -31.7830   59.2840 H   0  0  0  0  0  0  0  0  0  0  0  0
   -9.1620  -32.1280   58.9380 C   0  0  0  0  0  0  0  0  0  0  0  0
   -8.3010  -32.0870   58.3040 H   0  0  0  0  0  0  0  0  0  0  0  0
   -9.0490  -32.3270   59.9840 H   0  0  0  0  0  0  0  0  0  0  0  0
   -8.1870  -32.2860   59.3500 H   0  0  0  0  0  0  0  0  0  0  0  0
  1 16  1  0
  2  1  1  0
  3  2  2  0
  4  3  1  0
  4  9  2  0
  5 27  1  0
  5  4  1  0
  6  5  1  0
  6  7  2  0
  7  8  1  0
  8  9  1  0
  9  1  1  0
 10  3  1  0
 11  7  1  0
 12 13  1  0
 13 18  1  0
 13 14  2  0
 14 19  1  0
 15 20  1  0
 15 14  1  0
 16 15  2  0
 17 12  2  0
 17 16  1  0
 21 17  1  0
 22 12  1  0
 23 22  1  0
 24 23  1  0
 25 23  1  0
 26 23  1  0
 27 29  1  0
 28 27  1  0
 29 30  2  0
 30 31  1  0
 30 32  1  0
 32 37  1  0
 33 34  1  0
 33 32  2  0
 34 35  2  0
 35 42  1  0
 35 36  1  0
 36 40  1  0
 37 36  2  0
 37 41  1  0
 38 33  1  0
 39 34  1  0
 42 45  1  0
 42 44  1  0
 43 42  1  0
M  END
>  <minimizedAffinity>  (358) 
-8.9227562

$$$$

     RDKit          3D

 33 35  0  0  0  0  0  0  0  0999 V2000
  -21.0450  -31.0070   52.3960 O   0  0  0  0  0  0  0  0  0  0  0  0
  -21.7200  -30.0540   53.3370 C   0  0  0  0  0  0  0  0  0  0  0  0
  -23.0380  -30.2730   54.0200 N   0  0  0  0  0  0  0  0  0  0  0  0
  -23.3280  -29.0690   54.8650 C   0  0  0  0  0  0  0  0  0  0  0  0
  -24.5420  -28.8630   55.7210 O   0  0  0  0  0  0  0  0  0  0  0  0
  -22.1900  -28.1050   54.7050 C   0  0  0  0  0  0  0  0  0  0  0  0
  -21.1960  -28.7140   53.7610 C   0  0  0  0  0  0  0  0  0  0  0  0
  -23.6110  -31.0680   53.9280 H   0  0  0  0  0  0  0  0  0  0  0  0
  -22.0660  -26.7670   55.3720 C   0  0  0  0  0  0  0  0  0  0  0  0
  -20.9360  -26.5040   56.3230 C   0  0  0  0  0  0  0  0  0  0  0  0
  -20.8130  -25.1660   56.9900 C   0  0  0  0  0  0  0  0  0  0  0  0
  -21.8200  -24.0920   56.7070 C   0  0  0  0  0  0  0  0  0  0  0  0
  -22.9500  -24.3540   55.7560 C   0  0  0  0  0  0  0  0  0  0  0  0
  -23.0730  -25.6920   55.0890 C   0  0  0  0  0  0  0  0  0  0  0  0
  -24.2040  -25.9550   54.1380 Cl  0  0  0  0  0  0  0  0  0  0  0  0
  -20.2430  -27.2440   56.5180 H   0  0  0  0  0  0  0  0  0  0  0  0
  -20.0350  -24.9860   57.6440 H   0  0  0  0  0  0  0  0  0  0  0  0
  -21.7350  -23.1710   57.1660 H   0  0  0  0  0  0  0  0  0  0  0  0
  -23.6430  -23.6150   55.5610 H   0  0  0  0  0  0  0  0  0  0  0  0
  -19.9050  -28.0920   53.3180 N   0  0  0  0  0  0  0  0  0  0  0  0
  -19.8950  -27.4640   52.5600 H   0  0  0  0  0  0  0  0  0  0  0  0
  -18.6270  -28.4270   54.0300 C   0  0  0  0  0  0  0  0  0  0  0  0
  -18.1310  -29.8420   54.0560 C   0  0  0  0  0  0  0  0  0  0  0  0
  -16.8550  -30.1770   54.7670 C   0  0  0  0  0  0  0  0  0  0  0  0
  -16.3580  -31.5920   54.7930 Cl  0  0  0  0  0  0  0  0  0  0  0  0
  -16.0730  -29.0950   55.4540 C   0  0  0  0  0  0  0  0  0  0  0  0
  -16.5690  -27.6800   55.4280 C   0  0  0  0  0  0  0  0  0  0  0  0
  -15.7880  -26.5990   56.1140 Cl  0  0  0  0  0  0  0  0  0  0  0  0
  -17.8460  -27.3450   54.7160 C   0  0  0  0  0  0  0  0  0  0  0  0
  -18.6690  -30.5860   53.5840 H   0  0  0  0  0  0  0  0  0  0  0  0
  -18.1870  -26.3720   54.6980 H   0  0  0  0  0  0  0  0  0  0  0  0
  -14.7950  -29.4290   56.1660 O   0  0  0  0  0  0  0  0  0  0  0  0
  -14.4860  -30.3140   56.1810 H   0  0  0  0  0  0  0  0  0  0  0  0
  1  2  2  0
  2  7  1  0
  2  3  1  0
  3  4  1  0
  4  5  2  0
  6  4  1  0
  6  9  1  0
  7  6  2  0
  8  3  1  0
  9 10  1  0
 10 16  1  0
 10 11  2  0
 11 17  1  0
 12 11  1  0
 12 18  1  0
 13 12  2  0
 14  9  2  0
 14 13  1  0
 15 14  1  0
 19 13  1  0
 20  7  1  0
 20 22  1  0
 21 20  1  0
 22 23  2  0
 22 29  1  0
 23 24  1  0
 24 25  1  0
 24 26  2  0
 26 32  1  0
 27 26  1  0
 27 28  1  0
 29 27  2  0
 30 23  1  0
 31 29  1  0
 32 33  1  0
M  END
>  <minimizedAffinity>  (359) 
-8.13346195

$$$$

     RDKit          3D

 56 55  0  0  0  0  0  0  0  0999 V2000
  -21.6200  -24.8330   56.1790 C   0  0  0  0  0  0  0  0  0  0  0  0
  -20.3540  -25.6130   55.9800 C   0  0  0  0  0  3  0  0  0  0  0  0
  -20.4190  -27.0630   55.5990 C   0  0  0  0  0  2  0  0  0  0  0  0
  -21.7490  -27.7320   55.4170 C   0  0  0  0  0  1  0  0  0  0  0  0
  -23.0150  -26.9510   55.6160 C   0  0  0  0  0  2  0  0  0  0  0  0
  -22.9500  -25.5020   55.9970 N   0  0  0  0  0  0  0  0  0  0  0  0
  -19.4050  -25.1360   56.1100 H   0  0  0  0  0  0  0  0  0  0  0  0
  -19.4510  -26.1700   55.8380 H   0  0  0  0  0  0  0  0  0  0  0  0
  -20.4650  -28.0970   55.3280 H   0  0  0  0  0  0  0  0  0  0  0  0
  -21.7950  -28.7660   55.1460 H   0  0  0  0  0  0  0  0  0  0  0  0
  -22.6980  -28.2090   55.2880 H   0  0  0  0  0  0  0  0  0  0  0  0
  -23.8100  -24.9710   56.1320 H   0  0  0  0  0  0  0  0  0  0  0  0
  -19.1540  -27.8430   55.4010 N   0  0  0  0  0  0  0  0  0  0  0  0
  -17.7990  -27.4760   55.9290 C   0  0  0  0  0  0  0  0  0  0  0  0
  -16.8290  -28.5340   55.4930 N   0  0  0  0  0  0  0  0  0  0  0  0
  -17.5840  -29.5550   54.6950 C   0  0  0  0  0  0  0  0  0  0  0  0
  -19.0210  -29.1280   54.6380 C   0  0  0  0  0  0  0  0  0  0  0  0
  -17.5740  -26.6420   56.4940 H   0  0  0  0  0  0  0  0  0  0  0  0
  -17.0040  -30.7860   54.0650 C   0  0  0  0  0  0  0  0  0  0  0  0
  -17.2160  -31.0530   52.6040 C   0  0  0  0  0  0  0  0  0  0  0  0
  -16.6360  -32.2840   51.9750 C   0  0  0  0  0  0  0  0  0  0  0  0
  -15.8450  -33.2500   52.8050 C   0  0  0  0  0  0  0  0  0  0  0  0
  -15.2650  -34.4810   52.1750 F   0  0  0  0  0  0  0  0  0  0  0  0
  -15.6320  -32.9840   54.2660 C   0  0  0  0  0  0  0  0  0  0  0  0
  -16.2120  -31.7520   54.8960 C   0  0  0  0  0  0  0  0  0  0  0  0
  -17.7610  -30.3880   52.0330 H   0  0  0  0  0  0  0  0  0  0  0  0
  -16.7820  -32.4670   50.9690 H   0  0  0  0  0  0  0  0  0  0  0  0
  -15.0880  -33.6480   54.8380 H   0  0  0  0  0  0  0  0  0  0  0  0
  -16.0660  -31.5700   55.9020 H   0  0  0  0  0  0  0  0  0  0  0  0
  -20.1300  -29.8580   53.9410 C   0  0  0  0  0  0  0  0  0  0  0  0
  -20.6940  -29.3190   52.6600 C   0  0  0  0  0  0  0  0  0  0  0  0
  -21.8040  -30.0490   51.9630 C   0  0  0  0  0  0  0  0  0  0  0  0
  -22.3500  -31.3180   52.5470 N   0  0  0  0  0  0  0  0  0  0  0  0
  -21.7860  -31.8570   53.8280 C   0  0  0  0  0  0  0  0  0  0  0  0
  -22.3320  -33.1270   54.4120 N   0  0  0  0  0  0  0  0  0  0  0  0
  -20.6760  -31.1280   54.5250 N   0  0  0  0  0  0  0  0  0  0  0  0
  -20.3190  -28.4460   52.2580 H   0  0  0  0  0  0  0  0  0  0  0  0
  -22.1920  -29.6780   51.0810 H   0  0  0  0  0  0  0  0  0  0  0  0
  -23.0590  -33.6050   53.9550 H   0  0  0  0  0  0  0  0  0  0  0  0
  -21.9610  -33.4810   55.2530 H   0  0  0  0  0  0  0  0  0  0  0  0
  -22.5330  -23.6810   56.4770 C   0  0  0  0  0  0  0  0  0  0  0  0
  -22.1240  -22.7250   56.7300 H   0  0  0  0  0  0  0  0  0  0  0  0
  -23.5940  -23.8160   56.4370 H   0  0  0  0  0  0  0  0  0  0  0  0
  -23.1850  -22.8590   56.6900 H   0  0  0  0  0  0  0  0  0  0  0  0
  -20.6070  -23.7640   56.4650 C   0  0  0  0  0  0  0  0  0  0  0  0
  -19.5620  -23.9890   56.4110 H   0  0  0  0  0  0  0  0  0  0  0  0
  -20.9290  -22.7760   56.7220 H   0  0  0  0  0  0  0  0  0  0  0  0
  -19.8840  -23.0010   56.6680 H   0  0  0  0  0  0  0  0  0  0  0  0
  -23.5880  -28.2910   55.2620 C   0  0  0  0  0  0  0  0  0  0  0  0
  -24.6490  -28.4250   55.2220 H   0  0  0  0  0  0  0  0  0  0  0  0
  -22.9360  -29.1130   55.0490 H   0  0  0  0  0  0  0  0  0  0  0  0
  -23.9970  -29.2470   55.0090 H   0  0  0  0  0  0  0  0  0  0  0  0
  -24.4790  -26.6360   55.6920 C   0  0  0  0  0  0  0  0  0  0  0  0
  -24.8010  -25.6490   55.9500 H   0  0  0  0  0  0  0  0  0  0  0  0
  -25.2020  -27.3980   55.4880 H   0  0  0  0  0  0  0  0  0  0  0  0
  -25.5240  -26.4120   55.7460 H   0  0  0  0  0  0  0  0  0  0  0  0
  1 45  1  0
  1 41  1  0
  2  7  1  0
  2  1  1  0
  5 53  1  0
  5  6  1  0
  6 12  1  0
  6  1  1  0
  8  2  1  0
  9  3  1  0
 10  4  1  0
 13  3  1  0
 13 14  1  0
 14 18  1  0
 15 14  2  0
 16 15  1  0
 17 16  2  0
 17 13  1  0
 19 16  1  0
 19 25  1  0
 20 19  2  0
 21 20  1  0
 21 22  2  0
 22 24  1  0
 23 22  1  0
 24 28  1  0
 24 25  2  0
 25 29  1  0
 26 20  1  0
 27 21  1  0
 30 36  2  0
 30 17  1  0
 31 30  1  0
 32 33  1  0
 32 31  2  0
 33 34  2  0
 34 35  1  0
 34 36  1  0
 35 40  1  0
 37 31  1  0
 38 32  1  0
 39 35  1  0
 41 44  1  0
 41 42  1  0
 43 41  1  0
 45 48  1  0
 45 47  1  0
 46 45  1  0
 49 11  1  0
 50 49  1  0
 51 49  1  0
 52 49  1  0
 53 56  1  0
 53 54  1  0
 55 53  1  0
M  END
>  <minimizedAffinity>  (360) 
-8.67721844

$$$$

     RDKit          3D

 36 35  0  0  0  0  0  0  0  0999 V2000
  -13.3070  -30.4660   55.6060 O   0  0  0  0  0  1  0  0  0  0  0  0
  -14.4150  -31.4770   55.6570 C   0  0  0  0  0  2  0  0  0  0  0  0
  -15.8420  -31.0220   55.7320 N   0  0  0  0  0  0  0  0  0  0  0  0
  -16.1620  -29.5570   55.7560 C   0  0  0  0  0  0  0  0  0  0  0  0
  -15.1670  -28.4360   55.7110 N   0  0  0  0  0  0  0  0  0  0  0  0
  -15.9230  -27.1410   55.7560 N   0  0  0  0  0  0  0  0  0  0  0  0
  -17.3860  -27.4620   55.8290 C   0  0  0  0  0  0  0  0  0  0  0  0
  -18.6030  -26.5880   55.8960 C   0  0  0  0  0  0  0  0  0  0  0  0
  -19.9680  -27.2070   55.9630 C   0  0  0  0  0  0  0  0  0  0  0  0
  -20.1160  -28.6990   55.9630 C   0  0  0  0  0  0  0  0  0  0  0  0
  -18.8990  -29.5730   55.8960 C   0  0  0  0  0  0  0  0  0  0  0  0
  -17.5340  -28.9550   55.8290 C   0  0  0  0  0  0  0  0  0  0  0  0
  -16.5690  -31.6850   55.7660 H   0  0  0  0  0  0  0  0  0  0  0  0
  -15.5280  -26.2400   55.7410 H   0  0  0  0  0  0  0  0  0  0  0  0
  -18.5020  -25.5610   55.8960 H   0  0  0  0  0  0  0  0  0  0  0  0
  -21.0560  -29.1250   56.0080 H   0  0  0  0  0  0  0  0  0  0  0  0
  -19.0010  -30.6000   55.8960 H   0  0  0  0  0  0  0  0  0  0  0  0
  -21.1850  -26.3320   56.0290 C   0  0  0  0  0  0  0  0  0  0  0  0
  -22.5260  -26.8820   55.6430 C   0  0  0  0  0  0  0  0  0  0  0  0
  -23.7430  -26.0080   55.7090 C   0  0  0  0  0  0  0  0  0  0  0  0
  -23.6190  -24.5840   56.1630 C   0  0  0  0  0  0  0  0  0  0  0  0
  -22.2790  -24.0340   56.5490 C   0  0  0  0  0  0  0  0  0  0  0  0
  -21.0620  -24.9080   56.4830 C   0  0  0  0  0  0  0  0  0  0  0  0
  -22.6110  -27.8630   55.3310 H   0  0  0  0  0  0  0  0  0  0  0  0
  -24.6660  -26.3870   55.4430 H   0  0  0  0  0  0  0  0  0  0  0  0
  -24.4570  -23.9820   56.2080 H   0  0  0  0  0  0  0  0  0  0  0  0
  -22.1940  -23.0530   56.8610 H   0  0  0  0  0  0  0  0  0  0  0  0
  -20.1390  -24.5290   56.7490 H   0  0  0  0  0  0  0  0  0  0  0  0
  -14.0950  -32.9430   55.6330 C   0  0  0  0  0 15  0  0  0  0  0  0
  -13.4280  -34.1160   54.9780 C   0  0  0  0  0  3  0  0  0  0  0  0
  -14.2070  -34.3060   56.2470 C   0  0  0  0  0  2  0  0  0  0  0  0
  -13.8660  -33.9870   55.6160 H   0  0  0  0  0  0  0  0  0  0  0  0
  -12.8340  -34.5210   54.1870 H   0  0  0  0  0  0  0  0  0  0  0  0
  -13.3510  -35.1610   55.1960 H   0  0  0  0  0  0  0  0  0  0  0  0
  -14.5730  -34.9470   57.0220 H   0  0  0  0  0  0  0  0  0  0  0  0
  -14.7600  -33.6630   56.8980 H   0  0  0  0  0  0  0  0  0  0  0  0
  1  2  1  0
  2  3  1  0
  3  4  1  0
  3 13  1  0
  4 12  1  0
  5  4  2  0
  5  6  1  0
  6  7  1  0
  7  8  1  0
  8  9  2  0
  9 10  1  0
  9 18  1  0
 10 16  1  0
 11 10  2  0
 12  7  2  0
 12 11  1  0
 14  6  1  0
 15  8  1  0
 17 11  1  0
 18 23  1  0
 19 20  1  0
 19 18  2  0
 20 21  2  0
 21 26  1  0
 21 22  1  0
 22 27  1  0
 23 22  2  0
 23 28  1  0
 24 19  1  0
 25 20  1  0
 30 34  1  0
 30 32  1  0
 31 36  1  0
 31 35  1  0
 33 30  1  0
M  END
>  <minimizedAffinity>  (361) 
-9.23722363

$$$$

     RDKit          3D

 54 57  0  0  0  0  0  0  0  0999 V2000
  -18.8980  -27.8310   55.6130 C   0  0  0  0  0  0  0  0  0  0  0  0
  -17.8000  -28.8250   55.3770 S   0  0  0  0  0  0  0  0  0  0  0  0
  -18.4000  -30.1990   55.4290 C   0  0  0  0  0  0  0  0  0  0  0  0
  -19.8680  -30.0530   55.6980 C   0  0  0  0  0  0  0  0  0  0  0  0
  -20.1760  -28.5890   55.8110 C   0  0  0  0  0  0  0  0  0  0  0  0
  -20.5480  -30.8250   55.7880 H   0  0  0  0  0  0  0  0  0  0  0  0
  -17.6610  -31.4910   55.2460 N   0  0  0  0  0  0  0  0  0  0  0  0
  -17.8300  -32.4480   54.1020 C   0  0  0  0  0  0  0  0  0  0  0  0
  -16.8960  -33.6020   54.3220 N   0  0  0  0  0  0  0  0  0  0  0  0
  -16.1520  -33.3580   55.6000 C   0  0  0  0  0  0  0  0  0  0  0  0
  -15.1040  -34.1550   56.3190 C   0  0  0  0  0  0  0  0  0  0  0  0
  -14.5290  -33.6490   57.6080 C   0  0  0  0  0  0  0  0  0  0  0  0
  -15.0010  -32.3440   58.1790 C   0  0  0  0  0  0  0  0  0  0  0  0
  -16.0490  -31.5470   57.4600 C   0  0  0  0  0  0  0  0  0  0  0  0
  -16.6240  -32.0540   56.1710 C   0  0  0  0  0  0  0  0  0  0  0  0
  -18.4740  -32.3330   53.3040 H   0  0  0  0  0  0  0  0  0  0  0  0
  -14.7790  -35.0530   55.9260 H   0  0  0  0  0  0  0  0  0  0  0  0
  -16.3740  -30.6500   57.8530 H   0  0  0  0  0  0  0  0  0  0  0  0
  -13.4810  -34.4460   58.3270 O   0  0  0  0  0  0  0  0  0  0  0  0
  -12.5240  -35.3000   57.5490 C   0  0  0  0  0  0  0  0  0  0  0  0
  -12.5880  -35.3400   56.4820 H   0  0  0  0  0  0  0  0  0  0  0  0
  -11.7760  -35.8690   58.0620 H   0  0  0  0  0  0  0  0  0  0  0  0
  -11.8400  -35.9090   56.9950 H   0  0  0  0  0  0  0  0  0  0  0  0
  -14.4260  -31.8380   59.4680 O   0  0  0  0  0  0  0  0  0  0  0  0
  -13.0230  -31.3100   59.5070 C   0  0  0  0  0  0  0  0  0  0  0  0
  -12.4320  -31.2950   58.6160 H   0  0  0  0  0  0  0  0  0  0  0  0
  -12.6120  -30.9480   60.4270 H   0  0  0  0  0  0  0  0  0  0  0  0
  -12.0210  -30.9340   59.5350 H   0  0  0  0  0  0  0  0  0  0  0  0
  -19.8980  -25.4740   56.0610 N   0  0  0  0  0  0  0  0  0  0  0  0
  -18.7440  -26.3390   55.6460 C   0  0  0  0  0  0  0  0  0  0  0  0
  -17.4360  -25.7110   55.2630 O   0  0  0  0  0  0  0  0  0  0  0  0
  -20.7560  -25.8870   56.3130 H   0  0  0  0  0  0  0  0  0  0  0  0
  -19.7430  -23.9830   56.0940 C   0  0  0  0  0  0  0  0  0  0  0  0
  -20.5660  -23.3670   56.3900 H   0  0  0  0  0  0  0  0  0  0  0  0
  -18.8110  -23.5360   55.8200 H   0  0  0  0  0  0  0  0  0  0  0  0
  -19.6340  -22.9190   56.1170 H   0  0  0  0  0  0  0  0  0  0  0  0
  -21.5250  -27.9910   56.0760 O   0  0  0  0  0  0  0  0  0  0  0  0
  -22.4890  -27.7810   54.9460 C   0  0  0  0  0  0  0  0  0  0  0  0
  -22.1260  -27.6870   53.9440 H   0  0  0  0  0  0  0  0  0  0  0  0
  -23.1770  -27.6320   54.1400 H   0  0  0  0  0  0  0  0  0  0  0  0
  -23.9620  -27.7050   55.2210 C   0  0  0  0  0  0  0  0  0  0  0  0
  -24.7800  -28.9610   55.2830 C   0  0  0  0  0  0  0  0  0  0  0  0
  -26.2530  -28.8840   55.5580 C   0  0  0  0  0  0  0  0  0  0  0  0
  -26.9070  -27.5520   55.7700 C   0  0  0  0  0  0  0  0  0  0  0  0
  -26.0890  -26.2960   55.7080 C   0  0  0  0  0  0  0  0  0  0  0  0
  -24.6170  -26.3720   55.4330 C   0  0  0  0  0  0  0  0  0  0  0  0
  -24.3290  -29.8780   55.1370 H   0  0  0  0  0  0  0  0  0  0  0  0
  -26.8150  -29.7480   55.6000 H   0  0  0  0  0  0  0  0  0  0  0  0
  -27.9210  -27.4990   55.9590 H   0  0  0  0  0  0  0  0  0  0  0  0
  -26.5410  -25.3790   55.8540 H   0  0  0  0  0  0  0  0  0  0  0  0
  -23.8000  -25.1160   55.3710 C   0  0  0  0  0  0  0  0  0  0  0  0
  -22.9820  -23.8600   55.3090 F   0  0  0  0  0  0  0  0  0  0  0  0
  -23.6390  -25.1470   56.8620 F   0  0  0  0  0  0  0  0  0  0  0  0
  -23.9600  -25.0850   53.8810 F   0  0  0  0  0  0  0  0  0  0  0  0
  1 30  1  0
  1  5  2  0
  2  3  1  0
  2  1  1  0
  3  4  2  0
  4  6  1  0
  4  5  1  0
  5 37  1  0
  7  3  1  0
  7 15  1  0
  8  9  2  0
  8  7  1  0
  9 10  1  0
 10 15  2  0
 10 11  1  0
 11 12  2  0
 12 13  1  0
 12 19  1  0
 13 24  1  0
 14 18  1  0
 14 13  2  0
 15 14  1  0
 16  8  1  0
 17 11  1  0
 20 22  1  0
 20 19  1  0
 21 20  1  0
 23 20  1  0
 24 25  1  0
 25 28  1  0
 25 27  1  0
 26 25  1  0
 29 33  1  0
 29 32  1  0
 30 29  1  0
 31 30  2  0
 33 36  1  0
 33 34  1  0
 35 33  1  0
 38 41  1  0
 38 37  1  0
 39 38  1  0
 40 38  1  0
 41 42  2  0
 41 46  1  0
 42 43  1  0
 43 48  1  0
 43 44  2  0
 44 49  1  0
 45 44  1  0
 45 50  1  0
 46 45  2  0
 47 42  1  0
 51 46  1  0
 51 53  1  0
 52 51  1  0
 54 51  1  0
M  END
>  <minimizedAffinity>  (362) 
-8.9267292

$$$$

     RDKit          3D

 51 54  0  0  0  0  0  0  0  0999 V2000
  -19.6430  -27.9740   54.3650 N   0  0  0  0  0  0  0  0  0  0  0  0
  -20.0130  -26.7330   55.1200 C   0  0  0  0  0  0  0  0  0  0  0  0
  -19.0570  -25.7120   55.6620 C   0  0  0  0  0  0  0  0  0  0  0  0
  -17.5620  -25.7530   55.5430 O   0  0  0  0  0  0  0  0  0  0  0  0
  -19.8570  -24.6420   56.3440 N   0  0  0  0  0  0  0  0  0  0  0  0
  -21.3080  -25.0020   56.2240 C   0  0  0  0  0  0  0  0  0  0  0  0
  -22.5550  -24.3200   56.7050 C   0  0  0  0  0  0  0  0  0  0  0  0
  -23.8970  -24.9300   56.4300 C   0  0  0  0  0  0  0  0  0  0  0  0
  -23.9940  -26.2220   55.6750 C   0  0  0  0  0  0  0  0  0  0  0  0
  -22.7470  -26.9040   55.1930 C   0  0  0  0  0  0  0  0  0  0  0  0
  -21.4050  -26.2940   55.4680 C   0  0  0  0  0  0  0  0  0  0  0  0
  -19.4940  -23.8440   56.7910 H   0  0  0  0  0  0  0  0  0  0  0  0
  -22.4880  -23.4310   57.2250 H   0  0  0  0  0  0  0  0  0  0  0  0
  -24.7550  -24.4600   56.7620 H   0  0  0  0  0  0  0  0  0  0  0  0
  -22.8140  -27.7930   54.6730 H   0  0  0  0  0  0  0  0  0  0  0  0
  -25.3360  -26.8320   55.4000 C   0  0  0  0  0  0  0  0  0  0  0  0
  -25.4300  -28.1460   54.6840 O   0  0  0  0  0  0  0  0  0  0  0  0
  -26.5840  -26.1270   55.8410 N   0  0  0  0  0  0  0  0  0  0  0  0
  -26.5230  -25.2640   56.3110 H   0  0  0  0  0  0  0  0  0  0  0  0
  -27.9270  -26.7370   55.5670 C   0  0  0  0  0  0  0  0  0  0  0  0
  -28.5380  -26.3520   54.7770 H   0  0  0  0  0  0  0  0  0  0  0  0
  -28.8850  -27.1720   55.3710 H   0  0  0  0  0  0  0  0  0  0  0  0
  -28.4130  -27.8860   56.3990 C   0  0  0  0  0  0  0  0  0  0  0  0
  -28.1500  -28.8880   56.1330 H   0  0  0  0  0  0  0  0  0  0  0  0
  -28.7600  -28.7060   56.9930 H   0  0  0  0  0  0  0  0  0  0  0  0
  -29.2680  -27.6300   57.6050 C   0  0  0  0  0  0  0  0  0  0  0  0
  -28.9690  -28.0700   59.0080 C   0  0  0  0  0  0  0  0  0  0  0  0
  -30.0880  -27.6010   59.8890 N   0  0  0  0  0  0  0  0  0  0  0  0
  -31.0790  -26.8720   59.0320 C   0  0  0  0  0  0  0  0  0  0  0  0
  -30.5730  -26.8890   57.6200 N   0  0  0  0  0  0  0  0  0  0  0  0
  -28.1390  -28.6020   59.3120 H   0  0  0  0  0  0  0  0  0  0  0  0
  -30.1600  -27.7470   60.8600 H   0  0  0  0  0  0  0  0  0  0  0  0
  -31.9560  -26.4340   59.3560 H   0  0  0  0  0  0  0  0  0  0  0  0
  -18.2010  -28.2840   54.0910 N   0  0  0  0  0  0  0  0  0  0  0  0
  -17.7320  -27.8310   53.3530 H   0  0  0  0  0  0  0  0  0  0  0  0
  -16.0190  -31.2820   56.6400 C   0  0  0  0  0  0  0  0  0  0  0  0
  -17.4450  -31.5280   56.2490 C   0  0  0  0  0  0  0  0  0  0  0  0
  -18.1730  -30.5280   55.3990 C   0  0  0  0  0  0  0  0  0  0  0  0
  -17.4730  -29.2830   54.9410 C   0  0  0  0  0  0  0  0  0  0  0  0
  -16.0470  -29.0370   55.3320 C   0  0  0  0  0  0  0  0  0  0  0  0
  -15.3190  -30.0370   56.1820 C   0  0  0  0  0  0  0  0  0  0  0  0
  -17.9270  -32.3840   56.5640 H   0  0  0  0  0  0  0  0  0  0  0  0
  -19.1550  -30.6970   55.1300 H   0  0  0  0  0  0  0  0  0  0  0  0
  -15.5650  -28.1800   55.0170 H   0  0  0  0  0  0  0  0  0  0  0  0
  -14.3370  -29.8680   56.4510 H   0  0  0  0  0  0  0  0  0  0  0  0
  -15.2910  -32.2810   57.4900 S   0  0  2  0  0  0  0  0  0  0  0  0
  -16.5610  -33.0620   57.6580 O   0  0  0  0  0  0  0  0  0  0  0  0
  -14.0220  -31.5010   57.3220 O   0  0  0  0  0  0  0  0  0  0  0  0
  -14.5640  -33.2810   58.3400 N   0  0  0  0  0  0  0  0  0  0  0  0
  -15.0650  -34.0810   58.7280 H   0  0  0  0  0  0  0  0  0  0  0  0
  -13.5690  -33.1610   58.5300 H   0  0  0  0  0  0  0  0  0  0  0  0
  1  2  2  0
  2 11  1  0
  2  3  1  0
  3  5  1  0
  4  3  2  0
  5 12  1  0
  6  5  1  0
  6  7  1  0
  7 13  1  0
  8  7  2  0
  8 14  1  0
  9  8  1  0
 10 11  1  0
 10  9  2  0
 11  6  2  0
 15 10  1  0
 16  9  1  0
 16 18  1  0
 17 16  2  0
 18 19  1  0
 20 18  1  0
 20 23  1  0
 21 20  1  0
 22 20  1  0
 23 25  1  0
 23 26  1  0
 24 23  1  0
 26 30  1  0
 26 27  2  0
 27 31  1  0
 27 28  1  0
 28 32  1  0
 29 33  1  0
 29 28  1  0
 30 29  2  0
 34  1  1  0
 34 39  1  0
 35 34  1  0
 36 46  1  0
 37 42  1  0
 37 36  1  0
 38 37  2  0
 39 40  2  0
 39 38  1  0
 40 41  1  0
 41 45  1  0
 41 36  2  0
 43 38  1  0
 44 40  1  0
 46 47  2  0
 46 49  1  0
 48 46  2  0
 49 51  1  0
 49 50  1  0
M  END
>  <minimizedAffinity>  (363) 
-10.2611809

$$$$

     RDKit          3D

 65 63  0  0  1  0  0  0  0  0999 V2000
  -15.7460  -31.0970   54.8500 C   0  0  0  0  0  0  0  0  0  0  0  0
  -15.3380  -29.7800   55.4390 C   0  0  0  0  0  0  0  0  0  0  0  0
  -14.0030  -29.9590   56.0960 N   0  0  0  0  0  0  0  0  0  0  0  0
  -13.5850  -31.3880   55.9130 C   0  0  0  0  0  0  0  0  0  0  0  0
  -14.6620  -32.0920   55.1430 N   0  0  0  0  0  0  0  0  0  0  0  0
  -12.7090  -31.8130   56.2570 H   0  0  0  0  0  0  0  0  0  0  0  0
  -14.6560  -33.5350   54.7370 C   0  0  0  0  0  2  0  0  0  0  0  0
  -15.4950  -34.5280   55.4850 C   0  0  0  0  0  2  0  0  0  0  0  0
  -15.4900  -35.9730   55.0780 C   0  0  0  0  0  2  0  0  0  0  0  0
  -14.6450  -36.4230   53.9240 N   0  0  0  0  0  1  0  0  0  0  0  0
  -13.8060  -35.4290   53.1760 C   0  0  0  0  0  2  0  0  0  0  0  0
  -13.8120  -33.9860   53.5820 C   0  0  0  0  0  2  0  0  0  0  0  0
  -14.6520  -34.5650   54.4460 H   0  0  0  0  0  0  0  0  0  0  0  0
  -16.0980  -34.2070   56.3090 H   0  0  0  0  0  0  0  0  0  0  0  0
  -16.0940  -35.2370   56.0180 H   0  0  0  0  0  0  0  0  0  0  0  0
  -16.0880  -36.6810   55.6120 H   0  0  0  0  0  0  0  0  0  0  0  0
  -15.4860  -37.0020   54.7880 H   0  0  0  0  0  0  0  0  0  0  0  0
  -14.6410  -37.4040   53.6470 H   0  0  0  0  0  0  0  0  0  0  0  0
  -13.2040  -35.7520   52.3510 H   0  0  0  0  0  0  0  0  0  0  0  0
  -13.2080  -34.7210   52.6420 H   0  0  0  0  0  0  0  0  0  0  0  0
  -13.2140  -33.2770   53.0490 H   0  0  0  0  0  0  0  0  0  0  0  0
  -13.8160  -32.9560   53.8730 H   0  0  0  0  0  0  0  0  0  0  0  0
  -16.1290  -28.5060   55.3810 C   0  0  0  0  0  0  0  0  0  0  0  0
  -15.8780  -27.4210   56.3860 C   0  0  0  0  0  0  0  0  0  0  0  0
  -16.6680  -26.1480   56.3280 C   0  0  0  0  0  0  0  0  0  0  0  0
  -17.7090  -25.9580   55.2650 C   0  0  0  0  0  0  0  0  0  0  0  0
  -18.4990  -24.6840   55.2080 F   0  0  0  0  0  0  0  0  0  0  0  0
  -17.9600  -27.0430   54.2600 C   0  0  0  0  0  0  0  0  0  0  0  0
  -17.1700  -28.3170   54.3180 C   0  0  0  0  0  0  0  0  0  0  0  0
  -15.1620  -27.5510   57.1170 H   0  0  0  0  0  0  0  0  0  0  0  0
  -16.4950  -25.4010   57.0200 H   0  0  0  0  0  0  0  0  0  0  0  0
  -18.6760  -26.9130   53.5290 H   0  0  0  0  0  0  0  0  0  0  0  0
  -17.3430  -29.0630   53.6260 H   0  0  0  0  0  0  0  0  0  0  0  0
  -19.6110  -31.3480   53.9810 C   0  0  0  0  0  0  0  0  0  0  0  0
  -19.5530  -31.9240   52.5970 N   0  0  0  0  0  0  0  0  0  0  0  0
  -18.2270  -32.2240   51.9640 C   0  0  0  0  0  0  0  0  0  0  0  0
  -16.9580  -31.9480   52.7150 C   0  0  0  0  0  0  0  0  0  0  0  0
  -17.0150  -31.3730   54.0990 C   0  0  0  0  0  3  0  0  0  0  0  0
  -18.3420  -31.0730   54.7320 N   0  0  0  0  0  0  0  0  0  0  0  0
  -18.1880  -32.6200   51.0120 H   0  0  0  0  0  0  0  0  0  0  0  0
  -16.0460  -32.1550   52.2790 H   0  0  0  0  0  0  0  0  0  0  0  0
  -20.9370  -31.0480   54.6150 O   0  0  0  0  0  0  0  0  0  0  0  0
  -21.9990  -26.8160   55.7150 C   0  0  0  0  0  0  0  0  0  0  0  0
  -20.9000  -27.5270   56.4460 C   0  0  0  0  0  0  0  0  0  0  0  0
  -20.5460  -28.9380   56.0800 C   0  0  0  0  0  0  0  0  0  0  0  0
  -21.2910  -29.6370   54.9810 C   0  0  0  0  0  0  0  0  0  0  0  0
  -22.3900  -28.9250   54.2500 C   0  0  0  0  0  0  0  0  0  0  0  0
  -22.7440  -27.5140   54.6170 C   0  0  0  0  0  0  0  0  0  0  0  0
  -20.3870  -27.0470   57.2020 H   0  0  0  0  0  0  0  0  0  0  0  0
  -19.7890  -29.4280   56.5830 H   0  0  0  0  0  0  0  0  0  0  0  0
  -22.9030  -29.4060   53.4940 H   0  0  0  0  0  0  0  0  0  0  0  0
  -23.5000  -27.0250   54.1130 H   0  0  0  0  0  0  0  0  0  0  0  0
  -22.3520  -25.4050   56.0820 C   0  0  0  0  0  0  0  0  0  0  0  0
  -21.0250  -25.2490   56.7620 C   0  0  0  0  0  0  0  0  0  0  0  0
  -20.3330  -26.0650   56.7780 H   0  0  0  0  0  0  0  0  0  0  0  0
  -20.7700  -24.3210   57.2310 H   0  0  0  0  0  0  0  0  0  0  0  0
  -20.0780  -25.1370   57.2470 H   0  0  0  0  0  0  0  0  0  0  0  0
  -23.6800  -25.5610   55.4010 C   0  0  0  0  0  0  0  0  0  0  0  0
  -24.3720  -24.7450   55.3850 H   0  0  0  0  0  0  0  0  0  0  0  0
  -23.9350  -26.4890   54.9320 H   0  0  0  0  0  0  0  0  0  0  0  0
  -24.6270  -25.6720   54.9160 H   0  0  0  0  0  0  0  0  0  0  0  0
  -22.7060  -23.9940   56.4480 C   0  0  0  0  0  0  0  0  0  0  0  0
  -22.0120  -23.3940   57.0000 H   0  0  0  0  0  0  0  0  0  0  0  0
  -23.6530  -23.5870   56.1590 H   0  0  0  0  0  0  0  0  0  0  0  0
  -22.9590  -22.9880   56.7100 H   0  0  0  0  0  0  0  0  0  0  0  0
  1  5  1  0
  1  2  2  0
  2  3  1  0
  4  3  2  0
  4  6  1  0
  5  4  1  0
  7  5  1  0
  8 15  1  0
  8 14  1  0
  9 16  1  0
 12 22  1  0
 13  7  1  0
 17  9  1  0
 18 10  1  0
 19 11  1  0
 20 11  1  0
 21 12  1  0
 23  2  1  0
 23 24  1  0
 24 30  1  0
 25 24  2  0
 25 31  1  0
 26 25  1  0
 27 26  1  0
 28 29  1  0
 28 26  2  0
 29 23  2  0
 32 28  1  0
 33 29  1  0
 34 42  1  0
 34 39  2  0
 35 34  2  0
 36 35  1  0
 36 37  2  0
 37 38  1  0
 38 39  1  0
 38  1  1  0
 40 36  1  0
 41 37  1  0
 42 46  1  0
 43 53  1  0
 43 44  1  0
 44 49  1  0
 45 44  2  0
 45 50  1  0
 46 45  1  0
 47 48  1  0
 47 46  2  0
 48 43  2  0
 51 47  1  0
 52 48  1  0
 53 62  1  0
 53 54  1  0
 54 55  1  0
 54 56  1  0
 54 57  1  0
 58 53  1  0
 59 58  1  0
 60 58  1  0
 61 58  1  0
 62 65  1  0
 62 63  1  0
 64 62  1  0
M  END
>  <minimizedAffinity>  (364) 
-9.05140877

$$$$
