REMARK  6 active torsions:
REMARK  status: ('A' for Active; 'I' for Inactive)
REMARK    1  A    between atoms: C11_9  and  C12_10 
REMARK    2  A    between atoms: C12_10  and  C15_11 
REMARK    3  A    between atoms: C19_14  and  N24_17 
REMARK    4  A    between atoms: N24_17  and  C26_18 
REMARK    5  A    between atoms: C26_18  and  C29_19 
REMARK    6  A    between atoms: C35_23  and  C40_26 
ROOT
HETATM    1 CL1  P31 A1001      12.716   4.686  10.619  1.00 34.13    -0.081 Cl
HETATM    2  C1  P31 A1001      13.007   3.056  11.064  1.00 27.50     0.077 A 
HETATM    3  C2  P31 A1001      12.999   2.663  12.394  1.00 26.40     0.112 A 
HETATM    4  N4  P31 A1001      13.218   1.406  12.840  1.00 27.19    -0.226 NA
HETATM    5  C5  P31 A1001      13.255   2.111  10.077  1.00 24.53     0.016 A 
HETATM    6  C7  P31 A1001      13.486   0.791  10.488  1.00 24.15     0.033 A 
HETATM    7  C8  P31 A1001      13.453   0.528  11.851  1.00 25.48     0.140 A 
HETATM    8  N9  P31 A1001      13.700  -0.801  12.025  1.00 25.33    -0.338 N 
HETATM    9  C11 P31 A1001      13.770  -0.438   9.820  1.00 25.30     0.002 A 
HETATM   10  C30 P31 A1001      13.895  -1.397  10.810  1.00 24.88     0.070 A 
HETATM   11  H03 P31 A1001      13.734  -1.274  12.917  1.00 25.33     0.167 HD
ENDROOT
BRANCH   9  12
HETATM   12  C12 P31 A1001      13.898  -0.625   8.346  1.00 23.87     0.056 C 
BRANCH  12  13
HETATM   13  C15 P31 A1001      14.449  -1.995   8.094  1.00 23.54     0.002 A 
HETATM   14  C16 P31 A1001      15.741  -2.177   7.629  1.00 25.10     0.097 A 
HETATM   15  N18 P31 A1001      16.298  -3.379   7.377  1.00 25.23    -0.228 NA
HETATM   16  C19 P31 A1001      15.550  -4.489   7.588  1.00 25.98     0.137 A 
HETATM   17  C20 P31 A1001      14.240  -4.396   8.053  1.00 23.70     0.036 A 
HETATM   18  C22 P31 A1001      13.692  -3.143   8.303  1.00 24.66     0.001 A 
BRANCH  16  19
HETATM   19  N24 P31 A1001      16.079  -5.748   7.345  1.00 25.73    -0.355 N 
HETATM   20  H01 P31 A1001      15.695  -6.561   7.805  1.00 25.73     0.162 HD
BRANCH  19  21
HETATM   21  C26 P31 A1001      17.185  -5.882   6.426  1.00 26.16     0.128 C 
BRANCH  21  22
HETATM   22  C29 P31 A1001      18.495  -5.994   7.149  1.00 25.18     0.019 A 
HETATM   23  C32 P31 A1001      19.690  -5.899   6.455  1.00 25.56     0.096 A 
HETATM   24  N34 P31 A1001      20.911  -5.991   7.015  1.00 26.39    -0.240 NA
HETATM   25  C35 P31 A1001      20.963  -6.191   8.348  1.00 26.76     0.153 A 
HETATM   26  C36 P31 A1001      19.826  -6.302   9.139  1.00 24.14     0.023 A 
HETATM   27  C38 P31 A1001      18.581  -6.202   8.525  1.00 27.03     0.001 A 
BRANCH  25  28
HETATM   28  C40 P31 A1001      22.328  -6.296   8.951  1.00 29.35     0.435 C 
HETATM   29  F41 P31 A1001      22.379  -7.158   9.996  1.00 31.91    -0.165 F 
HETATM   30  F42 P31 A1001      23.250  -6.741   8.061  1.00 29.59    -0.165 F 
HETATM   31  F43 P31 A1001      22.809  -5.118   9.419  1.00 31.32    -0.165 F 
ENDBRANCH  25  28
ENDBRANCH  21  22
ENDBRANCH  19  21
ENDBRANCH  16  19
ENDBRANCH  12  13
ENDBRANCH   9  12
TORSDOF 6
